<routes>
<flow id="56" begin="6" end="56" number="56" from="47368026#2" to="-47360621" type="Car" />
</routes>
