<routes>
<flow id="321" begin="12" end="45" number="321" from="502484458" to="24527732#0" type="Sport" />
</routes>
