<routes>
<flow id="5" begin="0" end="200" number="5" from="-333598106#2" to="228373949#1" type="Car" />
</routes>
