<routes>
<flow id="2" begin="1" end="12" number="2" from="47457257" to="47457294#2" type="Sport" />
</routes>
