<routes>
<flow id="23" begin="1" end="12" number="23" from="24527732#0" to="266026705" type="Sport" />
<flow id="32" begin="1" end="12" number="32" from="148754587#0" to="42759519" type="Sport" />
</routes>
