<routes>
<flow id="12" begin="1" end="12" number="12" from="-47360627" to="47368026#2" type="Sport" />
</routes>
