<routes>
<flow id="44" begin="0" end="100" number="44" from="44511183#1" to="28730416" type="Sport" />
</routes>
