<routes>
<flow id="12" begin="1" end="12" number="12" from="49499523" to="-62333280#0" type="Sport" />
</routes>
