<routes>
<flow id="12" begin="1" end="12" number="12" from="230769158#3" to="47751812" type="Sport" />
</routes>
