<tazs>
<taz id="89" edges="43204508#0_0 4834462#0_0 24586342#0_0 " />
<taz id="54" edges="148754587#0_2 148754587#0_3 148754587#0_4 148754587#0_0 43204508#0_0 4834462#0_0 24586342#0_0 " />
</tazs>
