<tazs>
<taz id="1" edges="-825926549#0 825926549#0 -521709868 825926549#1 " />
<taz id="2" edges="-47419212#3 228371110 228371102#1 47419211 228371107#1 47419214#1 47419214#2 47419214#5 " />
</tazs>
