<tazs>
<taz id="45" edges="[34116141#1_0]" />
</tazs>
