<tazs>
<taz id="56" edges="148754587#0 148754587#0 148754587#0 148754587#0 148754587#0 42759519 167633351 371173887#2 4834463 " />
<taz id="89" edges="42759519 167633351 371173887#2 4834463 " />
</tazs>
