<tazs>
<taz id="34" edges="37079205#4_0 131357700#4_0 131357582_0 27557786_1 " />
<taz id="65" edges="131357700#4_0 131357582_0 27557786_1 " />
</tazs>
