<tazs>
<taz id="d1" edges="148754587#0 148754587#0 148754587#0 148754587#0 148754587#0 4793114#0 4793114#0 4793114#0 472503795 472503795 " />
<taz id="d2" edges="-504582669 -504582669 49499523 49499523 5069579#0 -5069579#2 4834461#0 -5069579#3 5069579#3 " />
</tazs>
