<?xml version="1.0" encoding="UTF-8"?>

<!-- generated on 08/31/20 01:31:21 by Eclipse SUMO od2trips Version 1.2.0
<configuration xmlns:xsi="http://www.w3.org/2001/XMLSchema-instance" xsi:noNamespaceSchemaLocation="http://sumo.dlr.de/xsd/od2tripsConfiguration.xsd">

    <input>
        <taz-files value="C:\Users\darkm\Documents\proyectos\Mogen\models\od\tazs.taz.xml"/>
        <od-matrix-files value="C:\Users\darkm\Documents\proyectos\Mogen\models\od\od.or"/>
    </input>

    <output>
        <output-file value="C:\Users\darkm\Documents\proyectos\Mogen\models\od\trips.trips.xml"/>
    </output>

    <processing>
        <vtype value="dist"/>
    </processing>

</configuration>
-->

<routes xmlns:xsi="http://www.w3.org/2001/XMLSchema-instance" xsi:noNamespaceSchemaLocation="http://sumo.dlr.de/xsd/routes_file.xsd">
    <trip id="9" depart="18.39" from="825926549#1" to="228371110" type="dist" fromTaz="1" toTaz="2" departLane="free" departSpeed="max"/>
    <trip id="5" depart="55.65" from="-825926549#0" to="228371107#1" type="dist" fromTaz="1" toTaz="2" departLane="free" departSpeed="max"/>
    <trip id="19" depart="163.02" from="-825926549#0" to="-47419212#3" type="dist" fromTaz="1" toTaz="2" departLane="free" departSpeed="max"/>
    <trip id="27" depart="238.38" from="825926549#0" to="228371102#1" type="dist" fromTaz="1" toTaz="2" departLane="free" departSpeed="max"/>
    <trip id="7" depart="381.92" from="825926549#1" to="47419211" type="dist" fromTaz="1" toTaz="2" departLane="free" departSpeed="max"/>
    <trip id="33" depart="423.68" from="-521709868" to="-47419212#3" type="dist" fromTaz="1" toTaz="2" departLane="free" departSpeed="max"/>
    <trip id="30" depart="433.87" from="825926549#0" to="47419211" type="dist" fromTaz="1" toTaz="2" departLane="free" departSpeed="max"/>
    <trip id="26" depart="436.43" from="-521709868" to="47419214#2" type="dist" fromTaz="1" toTaz="2" departLane="free" departSpeed="max"/>
    <trip id="1" depart="476.94" from="-825926549#0" to="47419214#1" type="dist" fromTaz="1" toTaz="2" departLane="free" departSpeed="max"/>
    <trip id="15" depart="674.42" from="-521709868" to="228371107#1" type="dist" fromTaz="1" toTaz="2" departLane="free" departSpeed="max"/>
    <trip id="17" depart="724.95" from="825926549#0" to="228371107#1" type="dist" fromTaz="1" toTaz="2" departLane="free" departSpeed="max"/>
    <trip id="3" depart="754.69" from="-521709868" to="47419211" type="dist" fromTaz="1" toTaz="2" departLane="free" departSpeed="max"/>
    <trip id="14" depart="764.28" from="825926549#1" to="-47419212#3" type="dist" fromTaz="1" toTaz="2" departLane="free" departSpeed="max"/>
    <trip id="24" depart="842.52" from="825926549#0" to="228371102#1" type="dist" fromTaz="1" toTaz="2" departLane="free" departSpeed="max"/>
    <trip id="16" depart="869.60" from="825926549#1" to="47419214#5" type="dist" fromTaz="1" toTaz="2" departLane="free" departSpeed="max"/>
    <trip id="12" depart="912.02" from="825926549#1" to="228371102#1" type="dist" fromTaz="1" toTaz="2" departLane="free" departSpeed="max"/>
    <trip id="29" depart="972.03" from="825926549#1" to="47419214#1" type="dist" fromTaz="1" toTaz="2" departLane="free" departSpeed="max"/>
    <trip id="39" depart="1038.84" from="825926549#1" to="228371102#1" type="dist" fromTaz="1" toTaz="2" departLane="free" departSpeed="max"/>
    <trip id="11" depart="1086.27" from="-825926549#0" to="228371110" type="dist" fromTaz="1" toTaz="2" departLane="free" departSpeed="max"/>
    <trip id="28" depart="1118.06" from="-825926549#0" to="228371102#1" type="dist" fromTaz="1" toTaz="2" departLane="free" departSpeed="max"/>
    <trip id="35" depart="1302.21" from="-825926549#0" to="47419214#1" type="dist" fromTaz="1" toTaz="2" departLane="free" departSpeed="max"/>
    <trip id="8" depart="1580.77" from="-825926549#0" to="-47419212#3" type="dist" fromTaz="1" toTaz="2" departLane="free" departSpeed="max"/>
    <trip id="22" depart="1651.42" from="825926549#0" to="-47419212#3" type="dist" fromTaz="1" toTaz="2" departLane="free" departSpeed="max"/>
    <trip id="32" depart="1763.21" from="825926549#1" to="228371102#1" type="dist" fromTaz="1" toTaz="2" departLane="free" departSpeed="max"/>
    <trip id="6" depart="1817.33" from="-521709868" to="47419214#5" type="dist" fromTaz="1" toTaz="2" departLane="free" departSpeed="max"/>
    <trip id="2" depart="1847.70" from="-521709868" to="47419214#1" type="dist" fromTaz="1" toTaz="2" departLane="free" departSpeed="max"/>
    <trip id="18" depart="1848.48" from="825926549#1" to="228371110" type="dist" fromTaz="1" toTaz="2" departLane="free" departSpeed="max"/>
    <trip id="25" depart="1943.63" from="-521709868" to="47419211" type="dist" fromTaz="1" toTaz="2" departLane="free" departSpeed="max"/>
    <trip id="13" depart="2039.96" from="-825926549#0" to="228371107#1" type="dist" fromTaz="1" toTaz="2" departLane="free" departSpeed="max"/>
    <trip id="34" depart="2169.75" from="-521709868" to="47419214#2" type="dist" fromTaz="1" toTaz="2" departLane="free" departSpeed="max"/>
    <trip id="20" depart="2239.54" from="-521709868" to="47419214#5" type="dist" fromTaz="1" toTaz="2" departLane="free" departSpeed="max"/>
    <trip id="38" depart="2264.40" from="825926549#1" to="47419214#2" type="dist" fromTaz="1" toTaz="2" departLane="free" departSpeed="max"/>
    <trip id="37" depart="2276.89" from="-825926549#0" to="47419211" type="dist" fromTaz="1" toTaz="2" departLane="free" departSpeed="max"/>
    <trip id="36" depart="2279.74" from="825926549#1" to="228371102#1" type="dist" fromTaz="1" toTaz="2" departLane="free" departSpeed="max"/>
    <trip id="10" depart="2300.46" from="-825926549#0" to="47419214#1" type="dist" fromTaz="1" toTaz="2" departLane="free" departSpeed="max"/>
    <trip id="21" depart="2436.32" from="-825926549#0" to="47419214#5" type="dist" fromTaz="1" toTaz="2" departLane="free" departSpeed="max"/>
    <trip id="0" depart="2488.08" from="-825926549#0" to="47419211" type="dist" fromTaz="1" toTaz="2" departLane="free" departSpeed="max"/>
    <trip id="4" depart="2950.16" from="825926549#1" to="228371102#1" type="dist" fromTaz="1" toTaz="2" departLane="free" departSpeed="max"/>
    <trip id="23" depart="3181.59" from="-825926549#0" to="228371110" type="dist" fromTaz="1" toTaz="2" departLane="free" departSpeed="max"/>
    <trip id="31" depart="3381.69" from="825926549#0" to="47419214#2" type="dist" fromTaz="1" toTaz="2" departLane="free" departSpeed="max"/>
</routes>
