<?xml version="1.0" encoding="UTF-8"?>

<!-- generated on 08/17/20 16:56:58 by Eclipse SUMO netconvert Version 1.2.0
<configuration xmlns:xsi="http://www.w3.org/2001/XMLSchema-instance" xsi:noNamespaceSchemaLocation="http://sumo.dlr.de/xsd/netconvertConfiguration.xsd">

    <input>
        <osm-files value="C:\Users\darkm\Documents\ter.osm"/>
    </input>

    <output>
        <output-file value="mapNetconvert.net.xml"/>
    </output>

    <projection>
        <proj.utm value="true"/>
    </projection>

    <processing>
        <geometry.remove value="true"/>
        <roundabouts.guess value="true"/>
    </processing>

    <edge_removal>
        <remove-edges.by-type value="railway.rail,highway.service,highway.cycleway,highway.footway,highway.steps,highway.bridleway,highway.pedestrian,highway.stairs,railway.ford,highway.track,highway.bus_guideway,highway.services,highway.path,railway.tram,railway.subway,highway.step"/>
    </edge_removal>

    <junctions>
        <junctions.join value="true"/>
    </junctions>

</configuration>
-->

<net version="1.1" junctionCornerDetail="5" limitTurnSpeed="5.50" xmlns:xsi="http://www.w3.org/2001/XMLSchema-instance" xsi:noNamespaceSchemaLocation="http://sumo.dlr.de/xsd/net_file.xsd">

    <location netOffset="-476350.95,-5550828.12" convBoundary="0.00,0.00,997.19,721.33" origBoundary="8.669165,50.109241,8.683231,50.115733" projParameter="+proj=utm +zone=32 +ellps=WGS84 +datum=WGS84 +units=m +no_defs"/>

    <type id="highway.bridleway" priority="1" numLanes="1" speed="2.78" allow="pedestrian" oneway="1" width="2.00"/>
    <type id="highway.bus_guideway" priority="1" numLanes="1" speed="27.78" allow="bus" oneway="1"/>
    <type id="highway.cycleway" priority="1" numLanes="1" speed="8.33" allow="bicycle" oneway="0" width="1.00"/>
    <type id="highway.footway" priority="1" numLanes="1" speed="2.78" allow="pedestrian" oneway="1" width="2.00"/>
    <type id="highway.ford" priority="1" numLanes="1" speed="2.78" allow="army" oneway="0"/>
    <type id="highway.living_street" priority="2" numLanes="1" speed="2.78" disallow="tram rail_urban rail rail_electric ship" oneway="0"/>
    <type id="highway.motorway" priority="14" numLanes="2" speed="39.44" allow="private emergency authority army vip passenger hov taxi bus coach delivery truck trailer motorcycle evehicle custom1 custom2" oneway="1"/>
    <type id="highway.motorway_link" priority="9" numLanes="1" speed="22.22" allow="private emergency authority army vip passenger hov taxi bus coach delivery truck trailer motorcycle evehicle custom1 custom2" oneway="1"/>
    <type id="highway.path" priority="1" numLanes="1" speed="2.78" allow="bicycle pedestrian" oneway="1" width="2.00"/>
    <type id="highway.pedestrian" priority="1" numLanes="1" speed="2.78" allow="pedestrian" oneway="1" width="2.00"/>
    <type id="highway.primary" priority="12" numLanes="2" speed="27.78" disallow="tram rail_urban rail rail_electric ship" oneway="0"/>
    <type id="highway.primary_link" priority="7" numLanes="1" speed="22.22" disallow="tram rail_urban rail rail_electric ship" oneway="0"/>
    <type id="highway.raceway" priority="15" numLanes="2" speed="83.33" allow="vip" oneway="0"/>
    <type id="highway.residential" priority="3" numLanes="1" speed="13.89" disallow="tram rail_urban rail rail_electric ship" oneway="0"/>
    <type id="highway.secondary" priority="11" numLanes="2" speed="27.78" disallow="tram rail_urban rail rail_electric ship" oneway="0"/>
    <type id="highway.secondary_link" priority="6" numLanes="1" speed="22.22" disallow="tram rail_urban rail rail_electric ship" oneway="0"/>
    <type id="highway.service" priority="1" numLanes="1" speed="5.56" allow="delivery bicycle pedestrian" oneway="0"/>
    <type id="highway.stairs" priority="1" numLanes="1" speed="1.39" allow="pedestrian" oneway="1" width="2.00"/>
    <type id="highway.step" priority="1" numLanes="1" speed="1.39" allow="pedestrian" oneway="1" width="2.00"/>
    <type id="highway.steps" priority="1" numLanes="1" speed="1.39" allow="pedestrian" oneway="1" width="2.00"/>
    <type id="highway.tertiary" priority="10" numLanes="1" speed="22.22" disallow="tram rail_urban rail rail_electric ship" oneway="0"/>
    <type id="highway.tertiary_link" priority="5" numLanes="1" speed="22.22" disallow="tram rail_urban rail rail_electric ship" oneway="0"/>
    <type id="highway.track" priority="1" numLanes="1" speed="5.56" disallow="tram rail_urban rail rail_electric ship" oneway="0"/>
    <type id="highway.trunk" priority="13" numLanes="2" speed="27.78" disallow="tram rail_urban rail rail_electric bicycle pedestrian ship" oneway="0"/>
    <type id="highway.trunk_link" priority="8" numLanes="1" speed="22.22" disallow="tram rail_urban rail rail_electric bicycle pedestrian ship" oneway="0"/>
    <type id="highway.unclassified" priority="4" numLanes="1" speed="13.89" disallow="tram rail_urban rail rail_electric ship" oneway="0"/>
    <type id="highway.unsurfaced" priority="1" numLanes="1" speed="8.33" disallow="tram rail_urban rail rail_electric ship" oneway="0"/>
    <type id="railway.light_rail" priority="19" numLanes="1" speed="27.78" allow="rail_urban" oneway="1"/>
    <type id="railway.preserved" priority="16" numLanes="1" speed="27.78" allow="rail" oneway="1"/>
    <type id="railway.rail" priority="20" numLanes="1" speed="83.33" allow="rail rail_electric" oneway="1"/>
    <type id="railway.subway" priority="18" numLanes="1" speed="27.78" allow="rail_urban" oneway="1"/>
    <type id="railway.tram" priority="17" numLanes="1" speed="13.89" allow="tram" oneway="1"/>

    <edge id=":1033446651_0" function="internal">
        <lane id=":1033446651_0_0" index="0" disallow="tram rail_urban rail rail_electric ship" speed="13.89" length="11.09" shape="51.82,712.08 41.40,715.88"/>
    </edge>
    <edge id=":1033446651_1" function="internal">
        <lane id=":1033446651_1_0" index="0" disallow="tram rail_urban rail rail_electric ship" speed="3.65" length="2.34" shape="51.82,712.08 50.42,711.73 49.77,711.11"/>
    </edge>
    <edge id=":1033446651_7" function="internal">
        <lane id=":1033446651_7_0" index="0" disallow="tram rail_urban rail rail_electric ship" speed="3.65" length="2.34" shape="49.77,711.11 49.88,710.23 50.74,709.07"/>
    </edge>
    <edge id=":1033446651_2" function="internal">
        <lane id=":1033446651_2_0" index="0" disallow="tram rail_urban rail rail_electric ship" speed="6.36" length="9.03" shape="38.07,706.88 40.24,705.69 41.46,704.10 41.71,702.09 41.01,699.67"/>
    </edge>
    <edge id=":1033446651_3" function="internal">
        <lane id=":1033446651_3_0" index="0" disallow="tram rail_urban rail rail_electric ship" speed="13.89" length="11.16" shape="38.07,706.88 48.58,703.04"/>
        <lane id=":1033446651_3_1" index="1" disallow="tram rail_urban rail rail_electric ship" speed="13.89" length="11.16" shape="39.18,709.88 49.66,706.06"/>
        <lane id=":1033446651_3_2" index="2" disallow="tram rail_urban rail rail_electric ship" speed="13.89" length="11.16" shape="40.29,712.88 50.74,709.07"/>
    </edge>
    <edge id=":1033446651_6" function="internal">
        <lane id=":1033446651_6_0" index="0" disallow="tram rail_urban rail rail_electric ship" speed="3.65" length="2.34" shape="40.29,712.88 41.69,713.22 42.34,713.83"/>
    </edge>
    <edge id=":1033446651_8" function="internal">
        <lane id=":1033446651_8_0" index="0" disallow="tram rail_urban rail rail_electric ship" speed="3.65" length="2.34" shape="42.34,713.83 42.25,714.72 41.40,715.88"/>
    </edge>
    <edge id=":1033447250_0" function="internal">
        <lane id=":1033447250_0_0" index="0" disallow="tram rail_urban rail rail_electric ship" speed="13.89" length="8.21" shape="116.21,711.70 115.81,709.32 115.17,707.74 114.53,706.17 114.16,703.78"/>
        <lane id=":1033447250_0_1" index="1" disallow="tram rail_urban rail rail_electric ship" speed="13.89" length="8.21" shape="116.21,711.70 116.31,709.29 116.76,707.66 117.23,706.03 117.35,703.62"/>
        <lane id=":1033447250_0_2" index="2" disallow="tram rail_urban rail rail_electric ship" speed="13.89" length="8.21" shape="119.40,711.50 119.50,709.11 119.96,707.48 120.42,705.86 120.55,703.46"/>
    </edge>
    <edge id=":1144707956_0" function="internal">
        <lane id=":1144707956_0_0" index="0" disallow="tram rail_urban rail rail_electric ship" speed="27.78" length="8.16" shape="406.62,288.98 404.28,288.27 402.57,288.14 400.88,287.99 398.57,287.21"/>
        <lane id=":1144707956_0_1" index="1" disallow="tram rail_urban rail rail_electric ship" speed="27.78" length="8.16" shape="406.62,288.98 404.50,287.82 403.24,286.69 401.99,285.53 399.91,284.30"/>
        <lane id=":1144707956_0_2" index="2" disallow="tram rail_urban rail rail_electric ship" speed="27.78" length="8.16" shape="407.85,286.02 405.76,284.88 404.52,283.75 403.29,282.60 401.24,281.39"/>
        <lane id=":1144707956_0_3" index="3" disallow="tram rail_urban rail rail_electric ship" speed="27.78" length="8.16" shape="409.07,283.07 407.02,281.94 405.80,280.82 404.59,279.68 402.57,278.48"/>
    </edge>
    <edge id=":1561456758_0" function="internal">
        <lane id=":1561456758_0_0" index="0" disallow="tram rail_urban rail rail_electric ship" speed="13.89" length="0.97" shape="114.05,150.80 113.77,150.88 113.59,150.96 113.43,151.08 113.23,151.29"/>
    </edge>
    <edge id=":162639_0" function="internal">
        <lane id=":162639_0_0" index="0" disallow="tram rail_urban rail rail_electric ship" speed="8.99" length="11.90" shape="732.46,345.52 733.16,349.30 734.28,352.22 735.84,354.28 737.84,355.49"/>
    </edge>
    <edge id=":162639_1" function="internal">
        <lane id=":162639_1_0" index="0" disallow="tram rail_urban rail rail_electric ship" speed="6.27" length="4.27" shape="732.46,345.52 732.37,348.98 731.92,349.65"/>
    </edge>
    <edge id=":162639_2" function="internal">
        <lane id=":162639_2_0" index="0" disallow="tram rail_urban rail rail_electric ship" speed="3.68" length="2.55" shape="732.46,345.52 732.08,346.94 731.44,347.59 731.28,347.57"/>
    </edge>
    <edge id=":162639_6" function="internal">
        <lane id=":162639_6_0" index="0" disallow="tram rail_urban rail rail_electric ship" speed="6.27" length="7.68" shape="731.92,349.65 731.11,350.87 728.70,351.18 725.12,349.92"/>
    </edge>
    <edge id=":162639_7" function="internal">
        <lane id=":162639_7_0" index="0" disallow="tram rail_urban rail rail_electric ship" speed="3.68" length="2.24" shape="731.28,347.57 730.53,347.47 729.36,346.57"/>
    </edge>
    <edge id=":162639_3" function="internal">
        <lane id=":162639_3_0" index="0" disallow="tram rail_urban rail rail_electric ship" speed="8.41" length="12.12" shape="732.69,358.46 732.48,356.26 731.15,354.10 728.70,351.98 725.12,349.92"/>
    </edge>
    <edge id=":162639_4" function="internal">
        <lane id=":162639_4_0" index="0" disallow="tram rail_urban rail rail_electric ship" speed="13.89" length="12.50" shape="732.69,358.46 732.58,355.22 731.53,352.53 730.23,349.83 729.36,346.57"/>
    </edge>
    <edge id=":162639_5" function="internal">
        <lane id=":162639_5_0" index="0" disallow="tram rail_urban rail rail_electric ship" speed="5.53" length="3.85" shape="732.69,358.46 733.28,356.58 734.34,355.45 734.66,355.37"/>
    </edge>
    <edge id=":162639_8" function="internal">
        <lane id=":162639_8_0" index="0" disallow="tram rail_urban rail rail_electric ship" speed="5.53" length="3.25" shape="734.66,355.37 735.85,355.09 737.84,355.49"/>
    </edge>
    <edge id=":162640_0" function="internal">
        <lane id=":162640_0_0" index="0" disallow="tram rail_urban rail rail_electric ship" speed="3.65" length="4.67" shape="865.35,30.71 866.21,31.87 866.32,32.75 865.67,33.37 864.27,33.72"/>
    </edge>
    <edge id=":162645_0" function="internal">
        <lane id=":162645_0_0" index="0" disallow="tram rail_urban rail rail_electric ship" speed="3.65" length="4.67" shape="379.27,594.95 379.73,593.58 380.39,592.98 381.27,593.16 382.36,594.10"/>
    </edge>
    <edge id=":162648_0" function="internal">
        <lane id=":162648_0_0" index="0" disallow="tram rail_urban rail rail_electric ship" speed="20.83" length="7.94" shape="254.03,632.11 255.34,633.97 256.57,634.99 257.85,636.00 259.30,637.77"/>
        <lane id=":162648_0_1" index="1" disallow="tram rail_urban rail rail_electric ship" speed="20.83" length="7.94" shape="254.03,632.11 254.93,634.25 255.23,635.87 255.58,637.46 256.62,639.52"/>
        <lane id=":162648_0_2" index="2" disallow="tram rail_urban rail rail_electric ship" speed="20.83" length="7.94" shape="251.23,633.66 252.17,635.86 252.49,637.52 252.86,639.15 253.93,641.26"/>
    </edge>
    <edge id=":16420974_0" function="internal">
        <lane id=":16420974_0_0" index="0" disallow="tram rail_urban rail rail_electric ship" speed="7.01" length="10.57" shape="33.12,542.22 30.61,540.10 28.24,539.13 26.01,539.31 23.92,540.63"/>
    </edge>
    <edge id=":16420974_1" function="internal">
        <lane id=":16420974_1_0" index="0" disallow="tram rail_urban rail rail_electric ship" speed="13.89" length="18.27" shape="33.12,542.22 20.90,528.51"/>
        <lane id=":16420974_1_1" index="1" disallow="tram rail_urban rail rail_electric ship" speed="13.89" length="18.27" shape="35.43,540.01 23.34,526.44"/>
    </edge>
    <edge id=":16420974_3" function="internal">
        <lane id=":16420974_3_0" index="0" disallow="tram rail_urban rail rail_electric ship" speed="15.28" length="14.14" shape="35.56,532.61 23.92,540.63"/>
    </edge>
    <edge id=":16420974_4" function="internal">
        <lane id=":16420974_4_0" index="0" disallow="tram rail_urban rail rail_electric ship" speed="7.47" length="12.00" shape="33.46,530.20 31.28,531.21 28.86,530.92 26.22,529.33 23.34,526.44"/>
    </edge>
    <edge id=":16420974_5" function="internal">
        <lane id=":16420974_5_0" index="0" disallow="tram rail_urban rail rail_electric ship" speed="11.11" length="5.27" shape="28.50,524.39 28.45,529.66"/>
    </edge>
    <edge id=":16420974_6" function="internal">
        <lane id=":16420974_6_0" index="0" disallow="tram rail_urban rail rail_electric ship" speed="5.45" length="4.71" shape="28.50,524.39 28.35,527.78 27.67,528.90"/>
    </edge>
    <edge id=":16420974_7" function="internal">
        <lane id=":16420974_7_0" index="0" disallow="tram rail_urban rail rail_electric ship" speed="11.11" length="12.11" shape="28.45,529.66 27.66,534.13 26.15,537.78 23.92,540.63"/>
    </edge>
    <edge id=":16420974_8" function="internal">
        <lane id=":16420974_8_0" index="0" disallow="tram rail_urban rail rail_electric ship" speed="5.45" length="5.55" shape="27.67,528.90 27.45,529.26 25.77,528.81 23.34,526.44"/>
    </edge>
    <edge id=":1773964648_0" function="internal">
        <lane id=":1773964648_0_0" index="0" disallow="tram rail_urban rail rail_electric ship" speed="13.89" length="0.34" shape="816.72,159.43 816.41,159.29"/>
    </edge>
    <edge id=":1773964648_1" function="internal">
        <lane id=":1773964648_1_0" index="0" disallow="tram rail_urban rail rail_electric ship" speed="13.89" length="0.11" shape="817.81,156.42 817.91,156.46"/>
    </edge>
    <edge id=":1851660076_0" function="internal">
        <lane id=":1851660076_0_0" index="0" disallow="tram rail_urban rail rail_electric ship" speed="3.65" length="4.67" shape="429.98,170.09 431.31,169.52 432.20,169.63 432.65,170.40 432.66,171.84"/>
    </edge>
    <edge id=":1851660154_0" function="internal">
        <lane id=":1851660154_0_0" index="0" disallow="tram rail_urban rail rail_electric ship" speed="27.78" length="8.13" shape="377.90,271.91 375.65,271.06 373.97,270.82 372.31,270.56 370.09,269.64"/>
        <lane id=":1851660154_0_1" index="1" disallow="tram rail_urban rail rail_electric ship" speed="27.78" length="8.13" shape="379.33,269.05 377.11,268.21 375.45,267.98 373.81,267.73 371.62,266.83"/>
    </edge>
    <edge id=":1851742837_0" function="internal">
        <lane id=":1851742837_0_0" index="0" disallow="tram rail_urban rail rail_electric ship" speed="27.78" length="7.99" shape="463.15,313.16 461.08,312.17 459.49,311.87 457.88,311.60 455.74,310.74"/>
        <lane id=":1851742837_0_1" index="1" disallow="tram rail_urban rail rail_electric ship" speed="27.78" length="7.99" shape="463.15,313.16 461.30,311.72 460.25,310.45 459.17,309.23 457.25,307.91"/>
        <lane id=":1851742837_0_2" index="2" disallow="tram rail_urban rail rail_electric ship" speed="27.78" length="7.99" shape="464.84,310.44 462.94,308.97 461.84,307.68 460.73,306.43 458.75,305.09"/>
    </edge>
    <edge id=":1851827453_0" function="internal">
        <lane id=":1851827453_0_0" index="0" disallow="tram rail_urban rail rail_electric ship" speed="3.65" length="4.67" shape="987.73,216.11 988.50,217.33 988.53,218.23 987.84,218.79 986.42,219.03"/>
    </edge>
    <edge id=":1851990629_0" function="internal">
        <lane id=":1851990629_0_0" index="0" disallow="tram rail_urban rail rail_electric ship" speed="3.65" length="4.67" shape="746.69,39.37 747.76,38.40 748.64,38.21 749.31,38.80 749.79,40.16"/>
    </edge>
    <edge id=":1852665898_0" function="internal">
        <lane id=":1852665898_0_0" index="0" disallow="tram rail_urban rail rail_electric ship" speed="13.89" length="8.13" shape="448.12,2.36 450.48,2.62 452.14,2.40 453.80,2.15 456.17,2.32"/>
        <lane id=":1852665898_0_1" index="1" disallow="tram rail_urban rail rail_electric ship" speed="13.89" length="8.13" shape="448.12,2.36 450.40,3.11 451.86,3.98 453.32,4.81 455.62,5.47"/>
    </edge>
    <edge id=":1852665901_0" function="internal">
        <lane id=":1852665901_0_0" index="0" disallow="tram rail_urban rail rail_electric ship" speed="14.91" length="3.52" shape="432.87,7.01 431.84,6.89 431.12,6.87 430.41,6.96 429.39,7.18"/>
    </edge>
    <edge id=":1852665901_1" function="internal">
        <lane id=":1852665901_1_0" index="0" disallow="tram rail_urban rail rail_electric ship" speed="22.22" length="3.59" shape="432.87,7.01 431.81,6.88 431.09,6.81 430.36,6.77 429.29,6.73"/>
    </edge>
    <edge id=":1852665902_0" function="internal">
        <lane id=":1852665902_0_0" index="0" disallow="tram rail_urban rail rail_electric ship" speed="22.22" length="0.34" shape="422.20,6.50 422.10,6.50 422.03,6.50 421.96,6.51 421.87,6.52"/>
    </edge>
    <edge id=":1852665928_0" function="internal">
        <lane id=":1852665928_0_0" index="0" disallow="tram rail_urban rail rail_electric ship" speed="16.23" length="10.86" shape="391.46,15.24 388.84,16.87 387.00,18.19 385.46,19.88 383.75,22.62"/>
    </edge>
    <edge id=":1852665928_1" function="internal">
        <lane id=":1852665928_1_0" index="0" disallow="tram rail_urban rail rail_electric ship" speed="13.89" length="11.47" shape="387.72,11.76 385.91,14.64 384.37,16.43 382.82,18.20 380.96,21.06"/>
        <lane id=":1852665928_1_1" index="1" disallow="tram rail_urban rail rail_electric ship" speed="13.89" length="11.47" shape="384.90,10.24 383.10,13.11 381.57,14.88 380.02,16.65 378.17,19.49"/>
        <lane id=":1852665928_1_2" index="2" disallow="tram rail_urban rail rail_electric ship" speed="13.89" length="11.47" shape="382.09,8.72 380.29,11.58 378.76,13.34 377.22,15.10 375.38,17.93"/>
    </edge>
    <edge id=":1852774849_0" function="internal">
        <lane id=":1852774849_0_0" index="0" disallow="tram rail_urban rail rail_electric ship" speed="13.89" length="8.91" shape="176.42,469.76 173.92,470.16 172.09,469.66 170.25,469.11 167.71,469.41"/>
    </edge>
    <edge id=":1852774849_1" function="internal">
        <lane id=":1852774849_1_0" index="0" disallow="tram rail_urban rail rail_electric ship" speed="13.89" length="8.56" shape="164.77,460.26 167.18,460.01 168.93,460.59 170.67,461.13 173.04,460.77"/>
        <lane id=":1852774849_1_1" index="1" disallow="tram rail_urban rail rail_electric ship" speed="13.89" length="8.56" shape="165.75,463.31 168.20,463.05 169.99,463.61 171.75,464.14 174.17,463.77"/>
    </edge>
    <edge id=":1852851707_0" function="internal">
        <lane id=":1852851707_0_0" index="0" disallow="tram rail_urban rail rail_electric ship" speed="3.65" length="4.67" shape="414.60,715.54 413.94,716.82 413.19,717.31 412.35,717.00 411.42,715.89"/>
    </edge>
    <edge id=":1852906059_0" function="internal">
        <lane id=":1852906059_0_0" index="0" disallow="tram rail_urban rail rail_electric ship" speed="3.65" length="4.67" shape="469.18,703.61 468.48,704.87 467.71,705.33 466.88,705.00 465.99,703.87"/>
    </edge>
    <edge id=":1852906063_0" function="internal">
        <lane id=":1852906063_0_0" index="0" disallow="tram rail_urban rail rail_electric ship" speed="3.65" length="4.67" shape="535.35,706.21 533.99,706.67 533.11,706.49 532.72,705.68 532.83,704.24"/>
    </edge>
    <edge id=":1853077715_0" function="internal">
        <lane id=":1853077715_0_0" index="0" disallow="tram rail_urban rail rail_electric ship" speed="13.89" length="0.31" shape="736.44,681.21 736.41,680.90"/>
    </edge>
    <edge id=":1853077715_1" function="internal">
        <lane id=":1853077715_1_0" index="0" disallow="tram rail_urban rail rail_electric ship" speed="13.89" length="0.23" shape="739.60,680.64 739.62,680.87"/>
    </edge>
    <edge id=":1854476486_0" function="internal">
        <lane id=":1854476486_0_0" index="0" disallow="tram rail_urban rail rail_electric ship" speed="3.65" length="1.14" shape="246.26,360.42 245.21,360.89"/>
    </edge>
    <edge id=":1854476486_2" function="internal">
        <lane id=":1854476486_2_0" index="0" disallow="tram rail_urban rail rail_electric ship" speed="3.65" length="3.53" shape="245.21,360.89 244.94,361.02 244.05,360.93 243.58,360.17 243.54,358.72"/>
    </edge>
    <edge id=":1854476486_1" function="internal">
        <lane id=":1854476486_1_0" index="0" disallow="tram rail_urban rail rail_electric ship" speed="13.89" length="3.50" shape="243.37,362.10 243.63,361.16 243.44,360.40 243.26,359.65 243.54,358.72"/>
    </edge>
    <edge id=":2383519408_0" function="internal">
        <lane id=":2383519408_0_0" index="0" disallow="tram rail_urban rail rail_electric ship" speed="13.89" length="8.64" shape="26.92,500.60 28.77,502.35 30.18,503.42 31.77,504.19 34.18,505.04"/>
    </edge>
    <edge id=":2383519408_1" function="internal">
        <lane id=":2383519408_1_0" index="0" disallow="tram rail_urban rail rail_electric ship" speed="13.89" length="10.31" shape="26.92,500.60 28.69,502.99 29.34,505.06 29.99,507.13 31.80,509.48"/>
        <lane id=":2383519408_1_1" index="1" disallow="tram rail_urban rail rail_electric ship" speed="13.89" length="10.31" shape="24.68,502.89 26.47,505.29 27.12,507.37 27.78,509.44 29.60,511.81"/>
    </edge>
    <edge id=":2383519408_3" function="internal">
        <lane id=":2383519408_3_0" index="0" disallow="tram rail_urban rail rail_electric ship" speed="10.04" length="2.31" shape="20.22,507.48 22.10,506.13"/>
    </edge>
    <edge id=":2383519409_0" function="internal">
        <lane id=":2383519409_0_0" index="0" disallow="tram rail_urban rail rail_electric ship" speed="13.89" length="6.79" shape="45.47,506.97 47.49,506.84 48.88,506.80 50.25,506.62 52.16,506.05"/>
    </edge>
    <edge id=":2383519409_1" function="internal">
        <lane id=":2383519409_1_0" index="0" disallow="tram rail_urban rail rail_electric ship" speed="13.89" length="6.83" shape="47.24,510.59 48.55,509.03 49.39,507.84 50.39,506.90 52.16,506.05"/>
    </edge>
    <edge id=":2543811387_0" function="internal">
        <lane id=":2543811387_0_0" index="0" disallow="tram rail_urban rail rail_electric ship" speed="13.89" length="0.56" shape="171.20,19.80 171.37,19.48"/>
        <lane id=":2543811387_0_1" index="1" disallow="tram rail_urban rail rail_electric ship" speed="13.89" length="0.56" shape="174.00,21.35 174.22,20.95"/>
        <lane id=":2543811387_0_2" index="2" disallow="tram rail_urban rail rail_electric ship" speed="13.89" length="0.56" shape="176.80,22.91 177.06,22.42"/>
        <lane id=":2543811387_0_3" index="3" disallow="tram rail_urban rail rail_electric ship" speed="13.89" length="0.56" shape="179.60,24.46 179.90,23.88"/>
        <lane id=":2543811387_0_4" index="4" disallow="tram rail_urban rail rail_electric ship" speed="13.89" length="0.56" shape="182.39,26.01 182.75,25.35"/>
    </edge>
    <edge id=":2543811493_0" function="internal">
        <lane id=":2543811493_0_0" index="0" disallow="tram rail_urban rail rail_electric ship" speed="13.89" length="0.24" shape="531.91,24.01 532.25,24.13"/>
        <lane id=":2543811493_0_1" index="1" disallow="tram rail_urban rail rail_electric ship" speed="13.89" length="0.24" shape="530.95,27.07 531.07,27.11"/>
    </edge>
    <edge id=":2545840637_0" function="internal">
        <lane id=":2545840637_0_0" index="0" disallow="tram rail_urban rail rail_electric ship" speed="13.89" length="0.10" shape="542.47,286.68 542.47,286.68"/>
    </edge>
    <edge id=":2545840640_0" function="internal">
        <lane id=":2545840640_0_0" index="0" disallow="tram rail_urban rail rail_electric ship" speed="6.54" length="8.97" shape="555.45,301.47 557.29,303.05 559.22,303.66 561.24,303.31 563.34,302.00"/>
    </edge>
    <edge id=":2545840640_1" function="internal">
        <lane id=":2545840640_1_0" index="0" disallow="tram rail_urban rail rail_electric ship" speed="13.89" length="11.05" shape="555.45,301.47 562.83,309.69"/>
    </edge>
    <edge id=":2547038157_0" function="internal">
        <lane id=":2547038157_0_0" index="0" disallow="tram rail_urban rail rail_electric ship" speed="18.05" length="8.26" shape="667.32,188.00 669.14,189.63 670.48,190.64 671.97,191.44 674.20,192.44"/>
    </edge>
    <edge id=":2547038157_1" function="internal">
        <lane id=":2547038157_1_0" index="0" disallow="tram rail_urban rail rail_electric ship" speed="13.89" length="8.52" shape="667.42,187.85 669.39,189.29 670.68,190.38 672.04,191.35 674.20,192.44"/>
        <lane id=":2547038157_1_1" index="1" disallow="tram rail_urban rail rail_electric ship" speed="13.89" length="8.52" shape="665.61,190.49 667.73,192.03 669.13,193.18 670.59,194.21 672.92,195.37"/>
    </edge>
    <edge id=":2547038174_0" function="internal">
        <lane id=":2547038174_0_0" index="0" disallow="tram rail_urban rail rail_electric ship" speed="13.89" length="0.10" shape="706.17,205.01 706.17,205.01"/>
        <lane id=":2547038174_0_1" index="1" disallow="tram rail_urban rail rail_electric ship" speed="13.89" length="0.10" shape="705.12,208.03 705.12,208.03"/>
    </edge>
    <edge id=":2547038222_0" function="internal">
        <lane id=":2547038222_0_0" index="0" disallow="tram rail_urban rail rail_electric ship" speed="13.89" length="0.31" shape="785.64,245.12 785.36,245.02"/>
        <lane id=":2547038222_0_1" index="1" disallow="tram rail_urban rail rail_electric ship" speed="13.89" length="0.31" shape="786.61,242.07 786.31,241.97"/>
    </edge>
    <edge id=":2547038222_2" function="internal">
        <lane id=":2547038222_2_0" index="0" disallow="tram rail_urban rail rail_electric ship" speed="13.89" length="0.36" shape="788.21,235.84 788.31,235.88 788.38,235.91 788.45,235.94 788.56,235.97"/>
        <lane id=":2547038222_2_1" index="1" disallow="tram rail_urban rail rail_electric ship" speed="13.89" length="0.36" shape="787.25,238.91 787.35,238.94 787.42,238.97 787.48,238.99 787.58,239.02"/>
    </edge>
    <edge id=":2547038235_0" function="internal">
        <lane id=":2547038235_0_0" index="0" disallow="tram rail_urban rail rail_electric ship" speed="13.89" length="0.35" shape="883.20,276.29 882.83,276.17"/>
        <lane id=":2547038235_0_1" index="1" disallow="tram rail_urban rail rail_electric ship" speed="13.89" length="0.35" shape="884.10,273.22 883.81,273.12"/>
    </edge>
    <edge id=":2547038235_2" function="internal">
        <lane id=":2547038235_2_0" index="0" disallow="tram rail_urban rail rail_electric ship" speed="13.89" length="0.21" shape="885.75,267.03 885.92,267.08"/>
        <lane id=":2547038235_2_1" index="1" disallow="tram rail_urban rail rail_electric ship" speed="13.89" length="0.21" shape="884.78,270.08 885.01,270.15"/>
    </edge>
    <edge id=":267048121_0" function="internal">
        <lane id=":267048121_0_0" index="0" disallow="tram rail_urban rail rail_electric ship" speed="13.89" length="36.76" shape="176.66,163.06 167.56,159.08 159.58,156.44 151.44,154.18 141.87,151.36"/>
    </edge>
    <edge id=":267048121_1" function="internal">
        <lane id=":267048121_1_0" index="0" disallow="tram rail_urban rail rail_electric ship" speed="13.89" length="36.95" shape="176.66,163.06 167.71,158.61 160.06,154.91 152.26,151.60 142.84,148.31"/>
    </edge>
    <edge id=":267048121_2" function="internal">
        <lane id=":267048121_2_0" index="0" disallow="tram rail_urban rail rail_electric ship" speed="13.89" length="37.46" shape="176.66,163.06 167.86,158.13 160.55,153.39 153.08,149.03 143.81,145.26"/>
    </edge>
    <edge id=":267048121_3" function="internal">
        <lane id=":267048121_3_0" index="0" disallow="tram rail_urban rail rail_electric ship" speed="13.89" length="37.79" shape="176.66,163.06 167.25,157.74 159.09,151.98 152.04,146.25 145.93,140.98"/>
        <lane id=":267048121_3_1" index="1" disallow="tram rail_urban rail rail_electric ship" speed="13.89" length="37.79" shape="178.07,160.19 168.71,154.89 160.66,149.18 153.71,143.49 147.65,138.24"/>
    </edge>
    <edge id=":267277111_0" function="internal">
        <lane id=":267277111_0_0" index="0" disallow="tram rail_urban rail rail_electric ship" speed="13.89" length="6.03" shape="909.99,415.46 911.53,416.36 912.61,416.95 913.71,417.48 915.34,418.22"/>
    </edge>
    <edge id=":267277111_1" function="internal">
        <lane id=":267277111_1_0" index="0" disallow="tram rail_urban rail rail_electric ship" speed="5.09" length="1.51" shape="911.21,419.68 911.98,418.58 912.12,418.49"/>
    </edge>