<?xml version="1.0" encoding="UTF-8"?>

<!-- generated on 08/26/19 12:53:55 by Eclipse SUMO netconvert Version 1.2.0
<configuration xmlns:xsi="http://www.w3.org/2001/XMLSchema-instance" xsi:noNamespaceSchemaLocation="http://sumo.dlr.de/xsd/netconvertConfiguration.xsd">

    <input>
        <osm-files value="C:\Users\darkm\Documents\rere.osm"/>
    </input>

    <output>
        <output-file value="mapNetconvert.net.xml"/>
    </output>

    <projection>
        <proj.utm value="true"/>
    </projection>

    <processing>
        <geometry.remove value="true"/>
        <roundabouts.guess value="true"/>
    </processing>

    <junctions>
        <junctions.join value="true"/>
    </junctions>

</configuration>
-->

<net version="1.1" junctionCornerDetail="5" limitTurnSpeed="5.50" xmlns:xsi="http://www.w3.org/2001/XMLSchema-instance" xsi:noNamespaceSchemaLocation="http://sumo.dlr.de/xsd/net_file.xsd">

    <location netOffset="-475635.58,-5549807.93" convBoundary="0.00,0.00,5143.08,1964.04" origBoundary="8.611691,50.088670,8.731139,50.117881" projParameter="+proj=utm +zone=32 +ellps=WGS84 +datum=WGS84 +units=m +no_defs"/>

    <type id="highway.bridleway" priority="1" numLanes="1" speed="2.78" allow="pedestrian" oneway="1" width="2.00"/>
    <type id="highway.bus_guideway" priority="1" numLanes="1" speed="27.78" allow="bus" oneway="1"/>
    <type id="highway.cycleway" priority="1" numLanes="1" speed="8.33" allow="bicycle" oneway="0" width="1.00"/>
    <type id="highway.footway" priority="1" numLanes="1" speed="2.78" allow="pedestrian" oneway="1" width="2.00"/>
    <type id="highway.ford" priority="1" numLanes="1" speed="2.78" allow="army" oneway="0"/>
    <type id="highway.living_street" priority="2" numLanes="1" speed="2.78" disallow="tram rail_urban rail rail_electric ship" oneway="0"/>
    <type id="highway.motorway" priority="14" numLanes="2" speed="39.44" allow="private emergency authority army vip passenger hov taxi bus coach delivery truck trailer motorcycle evehicle custom1 custom2" oneway="1"/>
    <type id="highway.motorway_link" priority="9" numLanes="1" speed="22.22" allow="private emergency authority army vip passenger hov taxi bus coach delivery truck trailer motorcycle evehicle custom1 custom2" oneway="1"/>
    <type id="highway.path" priority="1" numLanes="1" speed="2.78" allow="bicycle pedestrian" oneway="1" width="2.00"/>
    <type id="highway.pedestrian" priority="1" numLanes="1" speed="2.78" allow="pedestrian" oneway="1" width="2.00"/>
    <type id="highway.primary" priority="12" numLanes="2" speed="27.78" disallow="tram rail_urban rail rail_electric ship" oneway="0"/>
    <type id="highway.primary_link" priority="7" numLanes="1" speed="22.22" disallow="tram rail_urban rail rail_electric ship" oneway="0"/>
    <type id="highway.raceway" priority="15" numLanes="2" speed="83.33" allow="vip" oneway="0"/>
    <type id="highway.residential" priority="3" numLanes="1" speed="13.89" disallow="tram rail_urban rail rail_electric ship" oneway="0"/>
    <type id="highway.secondary" priority="11" numLanes="2" speed="27.78" disallow="tram rail_urban rail rail_electric ship" oneway="0"/>
    <type id="highway.secondary_link" priority="6" numLanes="1" speed="22.22" disallow="tram rail_urban rail rail_electric ship" oneway="0"/>
    <type id="highway.service" priority="1" numLanes="1" speed="5.56" allow="delivery bicycle pedestrian" oneway="0"/>
    <type id="highway.stairs" priority="1" numLanes="1" speed="1.39" allow="pedestrian" oneway="1" width="2.00"/>
    <type id="highway.step" priority="1" numLanes="1" speed="1.39" allow="pedestrian" oneway="1" width="2.00"/>
    <type id="highway.steps" priority="1" numLanes="1" speed="1.39" allow="pedestrian" oneway="1" width="2.00"/>
    <type id="highway.tertiary" priority="10" numLanes="1" speed="22.22" disallow="tram rail_urban rail rail_electric ship" oneway="0"/>
    <type id="highway.tertiary_link" priority="5" numLanes="1" speed="22.22" disallow="tram rail_urban rail rail_electric ship" oneway="0"/>
    <type id="highway.track" priority="1" numLanes="1" speed="5.56" disallow="tram rail_urban rail rail_electric ship" oneway="0"/>
    <type id="highway.trunk" priority="13" numLanes="2" speed="27.78" disallow="tram rail_urban rail rail_electric bicycle pedestrian ship" oneway="0"/>
    <type id="highway.trunk_link" priority="8" numLanes="1" speed="22.22" disallow="tram rail_urban rail rail_electric bicycle pedestrian ship" oneway="0"/>
    <type id="highway.unclassified" priority="4" numLanes="1" speed="13.89" disallow="tram rail_urban rail rail_electric ship" oneway="0"/>
    <type id="highway.unsurfaced" priority="1" numLanes="1" speed="8.33" disallow="tram rail_urban rail rail_electric ship" oneway="0"/>
    <type id="railway.light_rail" priority="19" numLanes="1" speed="27.78" allow="rail_urban" oneway="1"/>
    <type id="railway.preserved" priority="16" numLanes="1" speed="27.78" allow="rail" oneway="1"/>
    <type id="railway.rail" priority="20" numLanes="1" speed="83.33" allow="rail rail_electric" oneway="1"/>
    <type id="railway.subway" priority="18" numLanes="1" speed="27.78" allow="rail_urban" oneway="1"/>
    <type id="railway.tram" priority="17" numLanes="1" speed="13.89" allow="tram" oneway="1"/>

    <edge id=":1116037890_0" function="internal">
        <lane id=":1116037890_0_0" index="0" allow="bicycle pedestrian" speed="2.78" length="5.13" width="2.00" shape="955.76,1062.58 951.28,1060.08"/>
    </edge>
    <edge id=":1144707956_0" function="internal">
        <lane id=":1144707956_0_0" index="0" disallow="tram rail_urban rail rail_electric ship" speed="16.67" length="12.01" shape="1133.48,1318.69 1131.19,1316.59 1129.40,1315.03 1127.33,1313.66 1124.23,1312.11"/>
        <lane id=":1144707956_0_1" index="1" disallow="tram rail_urban rail rail_electric ship" speed="16.67" length="12.01" shape="1133.48,1318.69 1131.46,1316.16 1130.23,1313.66 1128.65,1311.30 1125.56,1309.20"/>
    </edge>
    <edge id=":1144707956_2" function="internal">
        <lane id=":1144707956_2_0" index="0" disallow="tram rail_urban rail rail_electric ship" speed="27.78" length="11.82" shape="1135.98,1314.98 1132.80,1313.46 1130.74,1312.16 1128.70,1310.83 1125.56,1309.20"/>
        <lane id=":1144707956_2_1" index="1" disallow="tram rail_urban rail rail_electric ship" speed="27.78" length="11.82" shape="1137.21,1312.03 1134.05,1310.52 1132.02,1309.23 1130.00,1307.90 1126.89,1306.29"/>
        <lane id=":1144707956_2_2" index="2" disallow="tram rail_urban rail rail_electric ship" speed="27.78" length="11.82" shape="1138.44,1309.07 1135.31,1307.58 1133.30,1306.30 1131.31,1304.98 1128.23,1303.38"/>
    </edge>
    <edge id=":162639_0" function="internal">
        <lane id=":162639_0_0" index="0" disallow="tram rail_urban rail rail_electric ship" speed="5.95" length="10.59" shape="1447.94,1366.72 1447.85,1369.77 1446.73,1371.43 1444.58,1371.69 1441.41,1370.56"/>
    </edge>
    <edge id=":162639_1" function="internal">
        <lane id=":162639_1_0" index="0" disallow="tram rail_urban rail rail_electric ship" speed="3.68" length="4.78" shape="1447.94,1366.72 1447.56,1368.15 1446.92,1368.80 1446.01,1368.67 1444.84,1367.77"/>
    </edge>
    <edge id=":162640_0" function="internal">
        <lane id=":162640_0_0" index="0" disallow="tram rail_urban rail rail_electric ship" speed="3.65" length="4.67" shape="1578.33,1050.05 1579.19,1051.20 1579.30,1052.09 1578.65,1052.71 1577.25,1053.06"/>
    </edge>
    <edge id=":162641_0" function="internal">
        <lane id=":162641_0_0" index="0" disallow="tram rail_urban rail rail_electric ship" speed="6.51" length="8.74" shape="1486.35,1020.68 1484.01,1020.24 1482.07,1020.64 1480.51,1021.88 1479.34,1023.95"/>
    </edge>
    <edge id=":162641_1" function="internal">
        <lane id=":162641_1_0" index="0" disallow="tram rail_urban rail rail_electric ship" speed="8.33" length="14.00" shape="1486.35,1020.68 1483.20,1019.10 1480.67,1016.88 1478.52,1014.17 1476.47,1011.15"/>
    </edge>
    <edge id=":162641_2" function="internal">
        <lane id=":162641_2_0" index="0" disallow="tram rail_urban rail rail_electric ship" speed="3.65" length="4.67" shape="1486.35,1020.68 1485.47,1019.54 1485.35,1018.65 1485.98,1018.02 1487.38,1017.65"/>
    </edge>
    <edge id=":162641_3" function="internal">
        <lane id=":162641_3_0" index="0" disallow="tram rail_urban rail rail_electric ship" speed="8.33" length="12.08" shape="1476.36,1022.79 1477.46,1019.27 1477.84,1016.16 1477.51,1013.45 1476.47,1011.15"/>
    </edge>
    <edge id=":162641_4" function="internal">
        <lane id=":162641_4_0" index="0" disallow="tram rail_urban rail rail_electric ship" speed="8.01" length="13.73" shape="1476.36,1022.79 1478.19,1019.53 1480.64,1017.59 1483.70,1016.96 1487.38,1017.65"/>
    </edge>
    <edge id=":162641_5" function="internal">
        <lane id=":162641_5_0" index="0" disallow="tram rail_urban rail rail_electric ship" speed="3.65" length="4.67" shape="1476.36,1022.79 1477.54,1021.96 1478.43,1021.88 1479.03,1022.55 1479.34,1023.95"/>
    </edge>
    <edge id=":162642_0" function="internal">
        <lane id=":162642_0_0" index="0" disallow="tram rail_urban rail rail_electric ship" speed="6.59" length="2.40" shape="1305.58,961.48 1305.48,963.88"/>
    </edge>
    <edge id=":162642_1" function="internal">
        <lane id=":162642_1_0" index="0" disallow="tram rail_urban rail rail_electric ship" speed="3.65" length="4.67" shape="1302.78,962.17 1304.10,961.58 1304.99,961.67 1305.45,962.44 1305.48,963.88"/>
    </edge>
    <edge id=":162643_0" function="internal">
        <lane id=":162643_0_0" index="0" disallow="tram rail_urban rail rail_electric ship" speed="11.11" length="10.23" shape="1265.20,1054.96 1264.86,1051.96 1264.51,1049.86 1264.36,1047.77 1264.62,1044.79"/>
    </edge>
    <edge id=":162643_1" function="internal">
        <lane id=":162643_1_0" index="0" disallow="tram rail_urban rail rail_electric ship" speed="4.97" length="6.18" shape="1265.20,1054.96 1265.95,1054.74 1267.75,1055.24 1269.73,1055.99 1271.06,1056.49"/>
    </edge>
    <edge id=":162643_2" function="internal">
        <lane id=":162643_2_0" index="0" disallow="tram rail_urban rail rail_electric ship" speed="7.25" length="10.15" shape="1267.79,1045.24 1267.70,1048.24 1268.36,1050.60 1269.79,1052.33 1271.99,1053.43"/>
    </edge>
    <edge id=":162643_3" function="internal">
        <lane id=":162643_3_0" index="0" disallow="tram rail_urban rail rail_electric ship" speed="3.65" length="2.34" shape="1267.79,1045.24 1266.83,1046.32 1265.98,1046.60"/>
    </edge>
    <edge id=":162643_7" function="internal">
        <lane id=":162643_7_0" index="0" disallow="tram rail_urban rail rail_electric ship" speed="3.65" length="2.34" shape="1265.98,1046.60 1265.24,1046.09 1264.62,1044.79"/>
    </edge>
    <edge id=":162643_4" function="internal">
        <lane id=":162643_4_0" index="0" disallow="tram rail_urban rail rail_electric ship" speed="6.05" length="9.07" shape="1258.16,1048.53 1260.67,1049.13 1262.58,1048.71 1263.90,1047.26 1264.62,1044.79"/>
    </edge>
    <edge id=":162643_5" function="internal">
        <lane id=":162643_5_0" index="0" disallow="tram rail_urban rail rail_electric ship" speed="13.89" length="14.80" shape="1258.16,1048.53 1271.99,1053.43"/>
        <lane id=":162643_5_1" index="1" disallow="tram rail_urban rail rail_electric ship" speed="13.89" length="14.80" shape="1256.98,1051.50 1271.06,1056.49"/>
    </edge>
    <edge id=":18404636_0" function="internal">
        <lane id=":18404636_0_0" index="0" disallow="tram rail_urban rail rail_electric ship" speed="3.65" length="4.67" shape="1854.72,1037.02 1855.81,1037.97 1856.11,1038.81 1855.61,1039.56 1854.32,1040.20"/>
    </edge>
    <edge id=":1851644018_0" function="internal">
        <lane id=":1851644018_0_0" index="0" disallow="tram rail_urban rail rail_electric ship" speed="13.89" length="5.07" shape="984.15,1070.92 988.53,1073.51"/>
        <lane id=":1851644018_0_1" index="1" disallow="tram rail_urban rail rail_electric ship" speed="13.89" length="5.07" shape="982.53,1073.68 986.88,1076.25"/>
    </edge>
    <edge id=":1851644049_0" function="internal">
        <lane id=":1851644049_0_0" index="0" disallow="tram rail_urban rail rail_electric ship" speed="13.89" length="6.07" shape="1371.54,1128.86 1376.78,1131.94"/>
    </edge>
    <edge id=":1851644049_1" function="internal">
        <lane id=":1851644049_1_0" index="0" disallow="tram rail_urban rail rail_electric ship" speed="4.64" length="3.76" shape="1373.34,1131.81 1373.87,1131.35 1374.62,1131.22 1375.59,1131.41 1376.78,1131.94"/>
    </edge>
    <edge id=":1851660076_0" function="internal">
        <lane id=":1851660076_0_0" index="0" disallow="tram rail_urban rail rail_electric ship" speed="3.65" length="4.67" shape="1145.26,1190.42 1146.59,1189.85 1147.47,1189.95 1147.93,1190.72 1147.94,1192.16"/>
    </edge>
    <edge id=":1851660154_0" function="internal">
        <lane id=":1851660154_0_0" index="0" disallow="tram rail_urban rail rail_electric ship" speed="27.78" length="8.13" shape="1093.26,1292.10 1091.01,1291.25 1089.33,1291.01 1087.67,1290.75 1085.45,1289.83"/>
        <lane id=":1851660154_0_1" index="1" disallow="tram rail_urban rail rail_electric ship" speed="27.78" length="8.13" shape="1094.70,1289.24 1092.47,1288.40 1090.82,1288.17 1089.17,1287.92 1086.98,1287.02"/>
    </edge>
    <edge id=":1851742837_0" function="internal">
        <lane id=":1851742837_0_0" index="0" disallow="tram rail_urban rail rail_electric ship" speed="27.78" length="7.99" shape="1178.52,1333.35 1176.45,1332.36 1174.86,1332.06 1173.25,1331.79 1171.11,1330.93"/>
        <lane id=":1851742837_0_1" index="1" disallow="tram rail_urban rail rail_electric ship" speed="27.78" length="7.99" shape="1178.52,1333.35 1176.67,1331.91 1175.61,1330.64 1174.53,1329.42 1172.61,1328.11"/>
        <lane id=":1851742837_0_2" index="2" disallow="tram rail_urban rail rail_electric ship" speed="27.78" length="7.99" shape="1180.20,1330.63 1178.30,1329.16 1177.21,1327.87 1176.09,1326.62 1174.12,1325.28"/>
    </edge>
    <edge id=":1851828384_0" function="internal">
        <lane id=":1851828384_0_0" index="0" disallow="tram rail_urban rail rail_electric ship" speed="7.39" length="4.62" shape="1633.74,1349.99 1634.39,1351.19 1634.95,1351.99 1635.71,1352.55 1636.95,1353.03"/>
    </edge>
    <edge id=":1851990630_0" function="internal">
        <lane id=":1851990630_0_0" index="0" disallow="tram rail_urban rail rail_electric ship" speed="8.33" length="4.65" shape="1330.57,1062.21 1331.93,1061.99 1332.87,1061.91 1333.82,1061.95 1335.19,1062.05"/>
    </edge>
    <edge id=":1851990705_0" function="internal">
        <lane id=":1851990705_0_0" index="0" allow="delivery bicycle pedestrian" speed="5.56" length="5.04" shape="1574.18,1126.69 1569.46,1124.93"/>
    </edge>
    <edge id=":1851990705_1" function="internal">
        <lane id=":1851990705_1_0" index="0" allow="delivery bicycle pedestrian" speed="3.65" length="4.67" shape="1574.18,1126.69 1573.34,1125.52 1573.24,1124.63 1573.90,1124.03 1575.30,1123.70"/>
    </edge>
    <edge id=":1851990705_2" function="internal">
        <lane id=":1851990705_2_0" index="0" allow="delivery bicycle pedestrian" speed="5.56" length="5.03" shape="1570.59,1121.93 1575.30,1123.70"/>
    </edge>
    <edge id=":1851990705_3" function="internal">
        <lane id=":1851990705_3_0" index="0" allow="delivery bicycle pedestrian" speed="3.65" length="4.67" shape="1570.59,1121.93 1571.43,1123.10 1571.52,1123.99 1570.87,1124.60 1569.46,1124.93"/>
    </edge>
    <edge id=":1852169920_0" function="internal">
        <lane id=":1852169920_0_0" index="0" allow="delivery bicycle pedestrian" speed="5.56" length="6.82" shape="1513.38,1223.09 1511.91,1224.43 1511.12,1225.56 1510.62,1226.90 1510.06,1228.84"/>
    </edge>
    <edge id=":1852169920_1" function="internal">
        <lane id=":1852169920_1_0" index="0" allow="delivery bicycle pedestrian" speed="5.56" length="8.86" shape="1513.38,1223.09 1511.67,1224.11 1509.70,1224.62 1507.44,1224.60 1504.92,1224.06"/>
    </edge>
    <edge id=":1852169920_2" function="internal">
        <lane id=":1852169920_2_0" index="0" allow="delivery bicycle pedestrian" speed="3.65" length="4.67" shape="1513.38,1223.09 1511.94,1223.23 1511.12,1222.87 1510.93,1221.99 1511.35,1220.61"/>
    </edge>
    <edge id=":1852169920_3" function="internal">
        <lane id=":1852169920_3_0" index="0" allow="delivery bicycle pedestrian" speed="5.56" length="5.73" shape="1505.84,1221.00 1507.57,1221.39 1509.06,1221.45 1510.32,1221.20 1511.35,1220.61"/>
    </edge>
    <edge id=":1852169920_4" function="internal">
        <lane id=":1852169920_4_0" index="0" allow="delivery bicycle pedestrian" speed="5.56" length="10.16" shape="1505.84,1221.00 1508.37,1222.17 1509.92,1223.86 1510.48,1226.09 1510.06,1228.84"/>
    </edge>
    <edge id=":1852169920_5" function="internal">
        <lane id=":1852169920_5_0" index="0" allow="delivery bicycle pedestrian" speed="3.65" length="4.67" shape="1505.84,1221.00 1506.76,1222.11 1506.91,1222.99 1506.30,1223.64 1504.92,1224.06"/>
    </edge>
    <edge id=":1852169920_6" function="internal">
        <lane id=":1852169920_6_0" index="0" allow="delivery bicycle pedestrian" speed="5.04" length="5.00" shape="1507.00,1227.92 1507.20,1226.57 1506.93,1225.47 1506.17,1224.64 1504.92,1224.06"/>
    </edge>
    <edge id=":1852169920_7" function="internal">
        <lane id=":1852169920_7_0" index="0" allow="delivery bicycle pedestrian" speed="5.56" length="8.73" shape="1507.00,1227.92 1507.73,1225.44 1508.40,1223.75 1509.45,1222.32 1511.35,1220.61"/>
    </edge>
    <edge id=":1852169920_8" function="internal">
        <lane id=":1852169920_8_0" index="0" allow="delivery bicycle pedestrian" speed="3.65" length="4.67" shape="1507.00,1227.92 1508.11,1227.00 1508.99,1226.85 1509.64,1227.47 1510.06,1228.84"/>
    </edge>
    <edge id=":1852665872_0" function="internal">
        <lane id=":1852665872_0_0" index="0" disallow="tram rail_urban rail rail_electric ship" speed="8.37" length="5.43" shape="1125.79,1009.47 1126.53,1010.90 1127.15,1011.87 1127.99,1012.58 1129.41,1013.23"/>
    </edge>
    <edge id=":1852665898_0" function="internal">
        <lane id=":1852665898_0_0" index="0" disallow="tram rail_urban rail rail_electric ship" speed="13.89" length="8.13" shape="1163.49,1022.55 1165.85,1022.81 1167.50,1022.59 1169.16,1022.34 1171.54,1022.51"/>
        <lane id=":1852665898_0_1" index="1" disallow="tram rail_urban rail rail_electric ship" speed="13.89" length="8.13" shape="1163.49,1022.55 1165.77,1023.30 1167.22,1024.17 1168.68,1025.00 1170.98,1025.66"/>
    </edge>
    <edge id=":1852665901_0" function="internal">
        <lane id=":1852665901_0_0" index="0" disallow="tram rail_urban rail rail_electric ship" speed="14.91" length="3.52" shape="1148.24,1027.20 1147.20,1027.08 1146.48,1027.06 1145.77,1027.15 1144.75,1027.37"/>
    </edge>
    <edge id=":1852665901_1" function="internal">
        <lane id=":1852665901_1_0" index="0" disallow="tram rail_urban rail rail_electric ship" speed="22.22" length="3.59" shape="1148.24,1027.20 1147.18,1027.07 1146.45,1027.00 1145.72,1026.96 1144.66,1026.92"/>
    </edge>
    <edge id=":1852666205_0" function="internal">
        <lane id=":1852666205_0_0" index="0" allow="delivery bicycle pedestrian" speed="3.65" length="4.67" shape="1367.73,1264.56 1368.73,1263.52 1369.59,1263.27 1370.30,1263.80 1370.87,1265.13"/>
    </edge>
    <edge id=":1853002798_0" function="internal">
        <lane id=":1853002798_0_0" index="0" disallow="tram rail_urban rail rail_electric ship" speed="8.33" length="4.98" shape="1484.33,1099.77 1479.46,1098.75"/>
    </edge>
    <edge id=":1853002798_1" function="internal">
        <lane id=":1853002798_1_0" index="0" disallow="tram rail_urban rail rail_electric ship" speed="3.65" length="4.67" shape="1484.33,1099.77 1483.33,1098.74 1483.10,1097.87 1483.66,1097.17 1485.00,1096.64"/>
    </edge>
    <edge id=":1853002798_2" function="internal">
        <lane id=":1853002798_2_0" index="0" disallow="tram rail_urban rail rail_electric ship" speed="8.33" length="5.01" shape="1480.09,1095.62 1485.00,1096.64"/>
    </edge>
    <edge id=":1853002798_3" function="internal">
        <lane id=":1853002798_3_0" index="0" disallow="tram rail_urban rail rail_electric ship" speed="3.65" length="4.67" shape="1480.09,1095.62 1481.11,1096.64 1481.34,1097.50 1480.79,1098.21 1479.46,1098.75"/>
    </edge>
    <edge id=":1853002800_0" function="internal">
        <lane id=":1853002800_0_0" index="0" allow="delivery bicycle pedestrian" speed="5.56" length="9.42" shape="1529.90,1125.24 1527.32,1124.29 1525.44,1124.03 1523.48,1124.12 1520.67,1124.19"/>
    </edge>
    <edge id=":1853002800_1" function="internal">
        <lane id=":1853002800_1_0" index="0" allow="delivery bicycle pedestrian" speed="5.56" length="10.36" shape="1529.90,1125.24 1527.16,1123.71 1525.26,1121.93 1524.20,1119.88 1523.98,1117.58"/>
    </edge>
    <edge id=":1853002800_2" function="internal">
        <lane id=":1853002800_2_0" index="0" allow="delivery bicycle pedestrian" speed="3.75" length="5.06" shape="1529.90,1125.24 1528.62,1124.34 1528.21,1123.47 1528.66,1122.61 1529.98,1121.78"/>
    </edge>
    <edge id=":1853002800_3" function="internal">
        <lane id=":1853002800_3_0" index="0" allow="delivery bicycle pedestrian" speed="5.56" length="5.18" shape="1527.17,1117.84 1527.27,1119.06 1527.77,1120.13 1528.67,1121.03 1529.98,1121.78"/>
    </edge>
    <edge id=":1853002800_4" function="internal">
        <lane id=":1853002800_4_0" index="0" allow="delivery bicycle pedestrian" speed="5.56" length="10.20" shape="1527.17,1117.84 1526.57,1120.65 1525.28,1122.64 1523.32,1123.82 1520.67,1124.19"/>
    </edge>
    <edge id=":1853002800_5" function="internal">
        <lane id=":1853002800_5_0" index="0" allow="delivery bicycle pedestrian" speed="3.65" length="4.67" shape="1527.17,1117.84 1526.28,1118.97 1525.45,1119.31 1524.68,1118.84 1523.98,1117.58"/>
    </edge>
    <edge id=":1853002800_6" function="internal">
        <lane id=":1853002800_6_0" index="0" allow="delivery bicycle pedestrian" speed="5.29" length="5.31" shape="1520.71,1120.99 1522.03,1120.79 1523.02,1120.16 1523.67,1119.09 1523.98,1117.58"/>
    </edge>
    <edge id=":1853002800_7" function="internal">
        <lane id=":1853002800_7_0" index="0" allow="delivery bicycle pedestrian" speed="5.56" length="9.45" shape="1520.71,1120.99 1523.52,1120.87 1525.49,1120.70 1527.39,1120.87 1529.98,1121.78"/>
    </edge>
    <edge id=":1853002800_8" function="internal">
        <lane id=":1853002800_8_0" index="0" allow="delivery bicycle pedestrian" speed="3.65" length="4.67" shape="1520.71,1120.99 1521.90,1121.81 1522.29,1122.61 1521.88,1123.41 1520.67,1124.19"/>
    </edge>
    <edge id=":1853002802_0" function="internal">
        <lane id=":1853002802_0_0" index="0" allow="delivery bicycle pedestrian" speed="5.56" length="5.01" shape="1531.10,1158.49 1530.21,1157.51 1529.23,1157.28 1528.06,1157.26 1526.61,1156.88"/>
    </edge>
    <edge id=":1853002802_1" function="internal">
        <lane id=":1853002802_1_0" index="0" allow="delivery bicycle pedestrian" speed="5.56" length="9.28" shape="1531.10,1158.49 1530.90,1157.41 1531.10,1155.54 1531.70,1152.88 1532.69,1149.45"/>
    </edge>
    <edge id=":1853002802_2" function="internal">
        <lane id=":1853002802_2_0" index="0" allow="delivery bicycle pedestrian" speed="3.65" length="4.67" shape="1531.10,1158.49 1531.20,1157.05 1531.70,1156.31 1532.59,1156.26 1533.88,1156.90"/>
    </edge>
    <edge id=":1853002802_3" function="internal">
        <lane id=":1853002802_3_0" index="0" allow="delivery bicycle pedestrian" speed="5.11" length="5.05" shape="1534.81,1152.55 1533.80,1153.40 1533.31,1154.41 1533.34,1155.58 1533.88,1156.90"/>
    </edge>
    <edge id=":1853002802_4" function="internal">
        <lane id=":1853002802_4_0" index="0" allow="delivery bicycle pedestrian" speed="5.56" length="9.33" shape="1534.81,1152.55 1533.30,1153.50 1530.73,1155.06 1528.15,1156.45 1526.61,1156.88"/>
    </edge>
    <edge id=":1853002802_5" function="internal">
        <lane id=":1853002802_5_0" index="0" allow="delivery bicycle pedestrian" speed="4.29" length="5.48" shape="1534.81,1152.55 1533.12,1152.57 1532.20,1152.06 1532.06,1151.02 1532.69,1149.45"/>
    </edge>
    <edge id=":1853002802_6" function="internal">
        <lane id=":1853002802_6_0" index="0" allow="delivery bicycle pedestrian" speed="5.56" length="10.77" shape="1523.89,1152.13 1527.06,1153.15 1529.58,1153.04 1531.46,1151.81 1532.69,1149.45"/>
    </edge>
    <edge id=":1853002802_7" function="internal">
        <lane id=":1853002802_7_0" index="0" allow="delivery bicycle pedestrian" speed="5.56" length="11.44" shape="1523.89,1152.13 1527.02,1153.14 1529.66,1153.66 1531.91,1154.62 1533.88,1156.90"/>
    </edge>
    <edge id=":1853002802_8" function="internal">
        <lane id=":1853002802_8_0" index="0" allow="delivery bicycle pedestrian" speed="4.43" length="7.99" shape="1523.89,1152.13 1526.35,1152.30 1527.62,1153.14 1527.71,1154.67 1526.61,1156.88"/>
    </edge>
    <edge id=":1853022171_0" function="internal">
        <lane id=":1853022171_0_0" index="0" allow="delivery bicycle pedestrian" speed="3.65" length="4.67" shape="1595.01,1058.93 1594.15,1057.78 1594.04,1056.89 1594.68,1056.27 1596.08,1055.91"/>
    </edge>
    <edge id=":1853022173_0" function="internal">
        <lane id=":1853022173_0_0" index="0" allow="delivery bicycle pedestrian" speed="3.65" length="4.67" shape="1605.50,1059.25 1606.36,1060.40 1606.47,1061.29 1605.83,1061.91 1604.43,1062.27"/>
    </edge>
    <edge id=":1854475976_0" function="internal">
        <lane id=":1854475976_0_0" index="0" disallow="tram rail_urban rail rail_electric ship" speed="5.56" length="9.97" shape="1408.75,980.76 1406.31,980.81 1404.28,981.72 1402.66,983.49 1401.44,986.12"/>
    </edge>
    <edge id=":1854475976_1" function="internal">
        <lane id=":1854475976_1_0" index="0" disallow="tram rail_urban rail rail_electric ship" speed="8.33" length="14.49" shape="1408.75,980.76 1394.42,978.64"/>
    </edge>
    <edge id=":1854475976_2" function="internal">
        <lane id=":1854475976_2_0" index="0" allow="bicycle pedestrian" speed="5.56" length="9.97" width="2.00" shape="1408.75,980.76 1405.82,979.98 1403.92,978.63 1403.05,976.71 1403.20,974.22"/>
    </edge>
    <edge id=":1854475976_3" function="internal">
        <lane id=":1854475976_3_0" index="0" disallow="tram rail_urban rail rail_electric ship" speed="5.56" length="9.05" shape="1398.40,985.12 1398.85,982.61 1398.33,980.70 1396.86,979.37 1394.42,978.64"/>
    </edge>
    <edge id=":1854475976_4" function="internal">
        <lane id=":1854475976_4_0" index="0" allow="bicycle pedestrian" speed="2.78" length="11.94" width="2.00" shape="1398.40,985.12 1399.65,982.10 1400.95,979.71 1402.18,977.31 1403.20,974.22"/>
    </edge>
    <edge id=":1854475976_5" function="internal">
        <lane id=":1854475976_5_0" index="0" disallow="tram rail_urban rail rail_electric ship" speed="2.78" length="4.67" shape="1398.40,985.12 1399.54,984.23 1400.42,984.10 1401.06,984.73 1401.44,986.12"/>
    </edge>
    <edge id=":1854476486_0" function="internal">
        <lane id=":1854476486_0_0" index="0" disallow="tram rail_urban rail rail_electric ship" speed="3.65" length="4.67" shape="960.84,1381.87 959.52,1382.46 958.63,1382.37 958.16,1381.61 958.12,1380.17"/>
    </edge>
    <edge id=":2018620802_0" function="internal">
        <lane id=":2018620802_0_0" index="0" disallow="tram rail_urban rail rail_electric ship" speed="8.33" length="5.10" shape="1286.32,994.67 1283.66,999.02"/>
    </edge>
    <edge id=":2018620802_1" function="internal">
        <lane id=":2018620802_1_0" index="0" disallow="tram rail_urban rail rail_electric ship" speed="3.65" length="2.34" shape="1286.32,994.67 1285.02,995.29 1284.12,995.22"/>
    </edge>
    <edge id=":2018620802_4" function="internal">
        <lane id=":2018620802_4_0" index="0" disallow="tram rail_urban rail rail_electric ship" speed="3.65" length="2.34" shape="1284.12,995.22 1283.64,994.46 1283.58,993.02"/>
    </edge>
    <edge id=":2018620802_2" function="internal">
        <lane id=":2018620802_2_0" index="0" disallow="tram rail_urban rail rail_electric ship" speed="8.33" length="5.06" shape="1280.94,997.34 1283.58,993.02"/>
    </edge>
    <edge id=":2018620802_3" function="internal">
        <lane id=":2018620802_3_0" index="0" disallow="tram rail_urban rail rail_electric ship" speed="3.65" length="2.34" shape="1280.94,997.34 1282.25,996.74 1283.14,996.82"/>
    </edge>
    <edge id=":2018620802_5" function="internal">
        <lane id=":2018620802_5_0" index="0" disallow="tram rail_urban rail rail_electric ship" speed="3.65" length="2.34" shape="1283.14,996.82 1283.61,997.58 1283.66,999.02"/>
    </edge>
    <edge id=":2029223036_0" function="internal">
        <lane id=":2029223036_0_0" index="0" disallow="tram rail_urban rail rail_electric ship" speed="13.89" length="3.05" shape="1621.92,1201.23 1618.92,1200.65"/>
    </edge>
    <edge id=":2029223036_1" function="internal">
        <lane id=":2029223036_1_0" index="0" disallow="tram rail_urban rail rail_electric ship" speed="3.65" length="2.34" shape="1621.92,1201.23 1620.88,1200.23 1620.62,1199.37"/>
    </edge>
    <edge id=":2029223036_4" function="internal">