<?xml version="1.0" encoding="UTF-8"?>

<!-- generated on 08/29/19 18:52:59 by Eclipse SUMO netconvert Version 1.2.0
<configuration xmlns:xsi="http://www.w3.org/2001/XMLSchema-instance" xsi:noNamespaceSchemaLocation="http://sumo.dlr.de/xsd/netconvertConfiguration.xsd">

    <input>
        <osm-files value="C:\Users\darkm\Desktop\te.osm"/>
    </input>

    <output>
        <output-file value="mapNetconvert.net.xml"/>
    </output>

    <projection>
        <proj.utm value="true"/>
    </projection>

    <processing>
        <geometry.remove value="true"/>
        <roundabouts.guess value="true"/>
    </processing>

    <junctions>
        <junctions.join value="true"/>
    </junctions>

</configuration>
-->

<net version="1.1" junctionCornerDetail="5" limitTurnSpeed="5.50" xmlns:xsi="http://www.w3.org/2001/XMLSchema-instance" xsi:noNamespaceSchemaLocation="http://sumo.dlr.de/xsd/net_file.xsd">

    <location netOffset="-475342.02,-5550206.54" convBoundary="0.00,0.00,4709.19,3268.08" origBoundary="8.655078,50.103668,8.720914,50.133042" projParameter="+proj=utm +zone=32 +ellps=WGS84 +datum=WGS84 +units=m +no_defs"/>

    <type id="highway.bridleway" priority="1" numLanes="1" speed="2.78" allow="pedestrian" oneway="1" width="2.00"/>
    <type id="highway.bus_guideway" priority="1" numLanes="1" speed="27.78" allow="bus" oneway="1"/>
    <type id="highway.cycleway" priority="1" numLanes="1" speed="8.33" allow="bicycle" oneway="0" width="1.00"/>
    <type id="highway.footway" priority="1" numLanes="1" speed="2.78" allow="pedestrian" oneway="1" width="2.00"/>
    <type id="highway.ford" priority="1" numLanes="1" speed="2.78" allow="army" oneway="0"/>
    <type id="highway.living_street" priority="2" numLanes="1" speed="2.78" disallow="tram rail_urban rail rail_electric ship" oneway="0"/>
    <type id="highway.motorway" priority="14" numLanes="2" speed="39.44" allow="private emergency authority army vip passenger hov taxi bus coach delivery truck trailer motorcycle evehicle custom1 custom2" oneway="1"/>
    <type id="highway.motorway_link" priority="9" numLanes="1" speed="22.22" allow="private emergency authority army vip passenger hov taxi bus coach delivery truck trailer motorcycle evehicle custom1 custom2" oneway="1"/>
    <type id="highway.path" priority="1" numLanes="1" speed="2.78" allow="bicycle pedestrian" oneway="1" width="2.00"/>
    <type id="highway.pedestrian" priority="1" numLanes="1" speed="2.78" allow="pedestrian" oneway="1" width="2.00"/>
    <type id="highway.primary" priority="12" numLanes="2" speed="27.78" disallow="tram rail_urban rail rail_electric ship" oneway="0"/>
    <type id="highway.primary_link" priority="7" numLanes="1" speed="22.22" disallow="tram rail_urban rail rail_electric ship" oneway="0"/>
    <type id="highway.raceway" priority="15" numLanes="2" speed="83.33" allow="vip" oneway="0"/>
    <type id="highway.residential" priority="3" numLanes="1" speed="13.89" disallow="tram rail_urban rail rail_electric ship" oneway="0"/>
    <type id="highway.secondary" priority="11" numLanes="2" speed="27.78" disallow="tram rail_urban rail rail_electric ship" oneway="0"/>
    <type id="highway.secondary_link" priority="6" numLanes="1" speed="22.22" disallow="tram rail_urban rail rail_electric ship" oneway="0"/>
    <type id="highway.service" priority="1" numLanes="1" speed="5.56" allow="delivery bicycle pedestrian" oneway="0"/>
    <type id="highway.stairs" priority="1" numLanes="1" speed="1.39" allow="pedestrian" oneway="1" width="2.00"/>
    <type id="highway.step" priority="1" numLanes="1" speed="1.39" allow="pedestrian" oneway="1" width="2.00"/>
    <type id="highway.steps" priority="1" numLanes="1" speed="1.39" allow="pedestrian" oneway="1" width="2.00"/>
    <type id="highway.tertiary" priority="10" numLanes="1" speed="22.22" disallow="tram rail_urban rail rail_electric ship" oneway="0"/>
    <type id="highway.tertiary_link" priority="5" numLanes="1" speed="22.22" disallow="tram rail_urban rail rail_electric ship" oneway="0"/>
    <type id="highway.track" priority="1" numLanes="1" speed="5.56" disallow="tram rail_urban rail rail_electric ship" oneway="0"/>
    <type id="highway.trunk" priority="13" numLanes="2" speed="27.78" disallow="tram rail_urban rail rail_electric bicycle pedestrian ship" oneway="0"/>
    <type id="highway.trunk_link" priority="8" numLanes="1" speed="22.22" disallow="tram rail_urban rail rail_electric bicycle pedestrian ship" oneway="0"/>
    <type id="highway.unclassified" priority="4" numLanes="1" speed="13.89" disallow="tram rail_urban rail rail_electric ship" oneway="0"/>
    <type id="highway.unsurfaced" priority="1" numLanes="1" speed="8.33" disallow="tram rail_urban rail rail_electric ship" oneway="0"/>
    <type id="railway.light_rail" priority="19" numLanes="1" speed="27.78" allow="rail_urban" oneway="1"/>
    <type id="railway.preserved" priority="16" numLanes="1" speed="27.78" allow="rail" oneway="1"/>
    <type id="railway.rail" priority="20" numLanes="1" speed="83.33" allow="rail rail_electric" oneway="1"/>
    <type id="railway.subway" priority="18" numLanes="1" speed="27.78" allow="rail_urban" oneway="1"/>
    <type id="railway.tram" priority="17" numLanes="1" speed="13.89" allow="tram" oneway="1"/>

    <edge id=":1046609056_0" function="internal">
        <lane id=":1046609056_0_0" index="0" disallow="tram rail_urban rail rail_electric ship" speed="3.65" length="4.67" shape="2157.64,1161.11 2156.53,1160.19 2156.22,1159.36 2156.70,1158.60 2157.98,1157.93"/>
    </edge>
    <edge id=":1102636261_0" function="internal">
        <lane id=":1102636261_0_0" index="0" disallow="tram rail_urban rail rail_electric ship" speed="13.89" length="19.48" shape="2841.78,1116.49 2840.14,1120.01 2838.45,1123.97 2837.33,1128.85 2837.36,1135.13"/>
    </edge>
    <edge id=":1102636261_1" function="internal">
        <lane id=":1102636261_1_0" index="0" disallow="tram rail_urban rail rail_electric ship" speed="13.89" length="20.29" shape="2837.62,1115.81 2836.20,1121.64 2834.84,1125.62 2834.00,1129.61 2834.18,1135.49"/>
        <lane id=":1102636261_1_1" index="1" disallow="tram rail_urban rail rail_electric ship" speed="13.89" length="20.29" shape="2834.36,1115.90 2832.95,1121.76 2831.61,1125.80 2830.80,1129.88 2831.00,1135.84"/>
    </edge>
    <edge id=":1137603663_0" function="internal">
        <lane id=":1137603663_0_0" index="0" disallow="tram rail_urban rail rail_electric ship" speed="6.61" length="8.52" shape="2241.58,1322.25 2239.22,1322.31 2237.38,1323.05 2236.05,1324.46 2235.24,1326.55"/>
    </edge>
    <edge id=":1137603663_1" function="internal">
        <lane id=":1137603663_1_0" index="0" disallow="tram rail_urban rail rail_electric ship" speed="6.99" length="11.16" shape="2241.58,1322.25 2237.95,1321.52 2235.50,1320.22 2234.22,1318.36 2234.12,1315.94"/>
    </edge>
    <edge id=":1137603663_2" function="internal">
        <lane id=":1137603663_2_0" index="0" disallow="tram rail_urban rail rail_electric ship" speed="8.33" length="10.25" shape="2237.27,1316.50 2235.24,1326.55"/>
    </edge>
    <edge id=":1137603663_3" function="internal">
        <lane id=":1137603663_3_0" index="0" disallow="tram rail_urban rail rail_electric ship" speed="3.65" length="4.67" shape="2237.27,1316.50 2236.27,1317.54 2235.41,1317.79 2234.70,1317.26 2234.12,1315.94"/>
    </edge>
    <edge id=":1137603663_4" function="internal">
        <lane id=":1137603663_4_0" index="0" disallow="tram rail_urban rail rail_electric ship" speed="8.33" length="10.10" shape="2232.12,1325.84 2234.12,1315.94"/>
    </edge>
    <edge id=":1137603663_5" function="internal">
        <lane id=":1137603663_5_0" index="0" disallow="tram rail_urban rail rail_electric ship" speed="3.65" length="4.67" shape="2232.12,1325.84 2233.17,1324.85 2234.04,1324.63 2234.73,1325.20 2235.24,1326.55"/>
    </edge>
    <edge id=":1137603665_0" function="internal">
        <lane id=":1137603665_0_0" index="0" disallow="tram rail_urban rail rail_electric ship" speed="4.17" length="5.06" shape="2314.49,1332.24 2314.37,1330.85 2313.83,1329.85 2312.86,1329.25 2311.48,1329.04"/>
    </edge>
    <edge id=":1137603665_1" function="internal">
        <lane id=":1137603665_1_0" index="0" allow="delivery bicycle pedestrian" speed="5.56" length="6.22" shape="2314.49,1332.24 2314.81,1326.03"/>
    </edge>
    <edge id=":1137603666_0" function="internal">
        <lane id=":1137603666_0_0" index="0" allow="delivery bicycle pedestrian" speed="5.56" length="5.65" shape="2318.24,1315.97 2317.01,1314.74 2316.15,1313.53 2315.66,1312.35 2315.54,1311.20"/>
    </edge>
    <edge id=":1137603666_1" function="internal">
        <lane id=":1137603666_1_0" index="0" allow="delivery bicycle pedestrian" speed="5.56" length="7.10" shape="2315.18,1318.30 2315.54,1311.20"/>
    </edge>
    <edge id=":1137603669_0" function="internal">
        <lane id=":1137603669_0_0" index="0" allow="delivery bicycle pedestrian" speed="7.07" length="5.57" shape="2320.96,1320.83 2320.87,1319.67 2320.41,1318.50 2319.59,1317.31 2318.39,1316.10"/>
    </edge>
    <edge id=":1137603669_1" function="internal">
        <lane id=":1137603669_1_0" index="0" disallow="tram rail_urban rail rail_electric ship" speed="13.89" length="7.06" shape="2320.96,1320.83 2321.48,1313.81"/>
        <lane id=":1137603669_1_1" index="1" disallow="tram rail_urban rail rail_electric ship" speed="13.89" length="7.06" shape="2324.15,1321.10 2324.67,1314.04"/>
    </edge>
    <edge id=":1138233087_0" function="internal">
        <lane id=":1138233087_0_0" index="0" disallow="tram rail_urban rail rail_electric ship" speed="8.34" length="0.25" shape="2292.72,1327.68 2292.47,1327.66"/>
    </edge>
    <edge id=":1144707956_0" function="internal">
        <lane id=":1144707956_0_0" index="0" disallow="tram rail_urban rail rail_electric ship" speed="16.67" length="12.01" shape="1427.05,920.08 1424.75,917.98 1422.96,916.43 1420.90,915.06 1417.80,913.50"/>
        <lane id=":1144707956_0_1" index="1" disallow="tram rail_urban rail rail_electric ship" speed="16.67" length="12.01" shape="1427.05,920.08 1425.03,917.55 1423.80,915.05 1422.21,912.69 1419.13,910.59"/>
    </edge>
    <edge id=":1144707956_2" function="internal">
        <lane id=":1144707956_2_0" index="0" disallow="tram rail_urban rail rail_electric ship" speed="27.78" length="11.82" shape="1429.55,916.38 1426.36,914.86 1424.31,913.55 1422.27,912.22 1419.13,910.59"/>
        <lane id=":1144707956_2_1" index="1" disallow="tram rail_urban rail rail_electric ship" speed="27.78" length="11.82" shape="1430.77,913.42 1427.62,911.91 1425.59,910.62 1423.57,909.29 1420.46,907.68"/>
        <lane id=":1144707956_2_2" index="2" disallow="tram rail_urban rail rail_electric ship" speed="27.78" length="11.82" shape="1432.00,910.47 1428.88,908.97 1426.87,907.69 1424.87,906.37 1421.79,904.77"/>
    </edge>
    <edge id=":1144707969_0" function="internal">
        <lane id=":1144707969_0_0" index="0" allow="delivery bicycle pedestrian" speed="5.56" length="6.76" shape="1506.83,988.62 1505.71,981.96"/>
    </edge>
    <edge id=":1144707969_1" function="internal">
        <lane id=":1144707969_1_0" index="0" allow="delivery bicycle pedestrian" speed="5.56" length="5.69" shape="1506.83,988.62 1506.80,987.07 1507.23,985.82 1508.12,984.86 1509.47,984.20"/>
    </edge>
    <edge id=":1144707969_2" function="internal">
        <lane id=":1144707969_2_0" index="0" allow="delivery bicycle pedestrian" speed="5.56" length="5.68" shape="1503.07,986.38 1504.45,985.67 1505.35,984.69 1505.77,983.46 1505.71,981.96"/>
    </edge>
    <edge id=":1144707969_3" function="internal">
        <lane id=":1144707969_3_0" index="0" allow="delivery bicycle pedestrian" speed="5.56" length="6.76" shape="1503.07,986.38 1509.47,984.20"/>
    </edge>
    <edge id=":1166321672_0" function="internal">
        <lane id=":1166321672_0_0" index="0" disallow="tram rail_urban rail rail_electric ship" speed="13.89" length="5.01" shape="1717.91,1033.57 1720.51,1029.29"/>
    </edge>
    <edge id=":119696753_0" function="internal">
        <lane id=":119696753_0_0" index="0" allow="delivery bicycle pedestrian" speed="5.56" length="3.04" shape="2341.11,1230.65 2340.90,1233.68"/>
    </edge>
    <edge id=":119696753_1" function="internal">
        <lane id=":119696753_1_0" index="0" allow="delivery bicycle pedestrian" speed="3.65" length="2.34" shape="2341.11,1230.65 2340.24,1231.80 2339.42,1232.16"/>
    </edge>
    <edge id=":119696753_4" function="internal">
        <lane id=":119696753_4_0" index="0" allow="delivery bicycle pedestrian" speed="3.65" length="2.34" shape="2339.42,1232.16 2338.64,1231.71 2337.91,1230.47"/>
    </edge>
    <edge id=":119696753_2" function="internal">
        <lane id=":119696753_2_0" index="0" allow="delivery bicycle pedestrian" speed="5.56" length="2.96" shape="2337.71,1233.42 2337.91,1230.47"/>
    </edge>
    <edge id=":119696753_3" function="internal">
        <lane id=":119696753_3_0" index="0" allow="delivery bicycle pedestrian" speed="3.65" length="2.34" shape="2337.71,1233.42 2338.61,1232.29 2339.43,1231.96"/>
    </edge>
    <edge id=":119696753_5" function="internal">
        <lane id=":119696753_5_0" index="0" allow="delivery bicycle pedestrian" speed="3.65" length="2.34" shape="2339.43,1231.96 2340.20,1232.42 2340.90,1233.68"/>
    </edge>
    <edge id=":119696781_0" function="internal">
        <lane id=":119696781_0_0" index="0" disallow="tram rail_urban rail rail_electric ship" speed="9.72" length="0.94" shape="2369.67,1559.74 2368.85,1560.19"/>
    </edge>
    <edge id=":119696781_1" function="internal">
        <lane id=":119696781_1_0" index="0" allow="delivery bicycle pedestrian" speed="5.56" length="5.52" shape="2369.67,1559.74 2370.40,1561.21 2370.73,1562.34 2371.19,1563.36 2372.27,1564.53"/>
    </edge>
    <edge id=":119696781_2" function="internal">
        <lane id=":119696781_2_0" index="0" allow="delivery bicycle pedestrian" speed="3.65" length="4.67" shape="2369.67,1559.74 2369.63,1561.18 2369.17,1561.95 2368.28,1562.03 2366.96,1561.44"/>
    </edge>
    <edge id=":119696781_3" function="internal">
        <lane id=":119696781_3_0" index="0" allow="delivery bicycle pedestrian" speed="9.72" length="0.96" shape="2367.69,1560.82 2366.96,1561.44"/>
    </edge>
    <edge id=":119696781_4" function="internal">
        <lane id=":119696781_4_0" index="0" disallow="tram rail_urban rail rail_electric ship" speed="13.89" length="1.24" shape="2367.69,1560.82 2368.85,1560.19"/>
        <lane id=":119696781_4_1" index="1" disallow="tram rail_urban rail rail_electric ship" speed="13.89" length="1.24" shape="2369.27,1563.60 2370.30,1563.04"/>
    </edge>
    <edge id=":119696781_6" function="internal">
        <lane id=":119696781_6_0" index="0" allow="delivery bicycle pedestrian" speed="4.88" length="3.32" shape="2369.27,1563.60 2369.89,1563.42 2370.60,1563.52 2371.39,1563.89 2372.27,1564.53"/>
    </edge>
    <edge id=":119696781_7" function="internal">
        <lane id=":119696781_7_0" index="0" allow="delivery bicycle pedestrian" speed="5.56" length="4.72" shape="2368.19,1565.88 2368.27,1564.92 2368.09,1563.86 2367.66,1562.70 2366.96,1561.44"/>
    </edge>
    <edge id=":119696781_8" function="internal">
        <lane id=":119696781_8_0" index="0" disallow="tram rail_urban rail rail_electric ship" speed="6.17" length="3.65" shape="2368.19,1565.88 2368.49,1564.97 2368.95,1564.19 2369.55,1563.55 2370.30,1563.04"/>
    </edge>
    <edge id=":119696781_9" function="internal">
        <lane id=":119696781_9_0" index="0" allow="delivery bicycle pedestrian" speed="4.69" length="5.73" shape="2368.19,1565.88 2368.79,1564.29 2369.67,1563.53 2370.83,1563.61 2372.27,1564.53"/>
    </edge>
    <edge id=":1351487430_0" function="internal">
        <lane id=":1351487430_0_0" index="0" allow="delivery bicycle pedestrian" speed="5.56" length="5.29" shape="1337.88,1184.49 1336.36,1184.89 1335.31,1185.15 1334.25,1185.29 1332.68,1185.38"/>
    </edge>
    <edge id=":1351487430_1" function="internal">
        <lane id=":1351487430_1_0" index="0" allow="delivery bicycle pedestrian" speed="3.65" length="4.67" shape="1337.88,1184.49 1336.52,1184.02 1335.93,1183.34 1336.12,1182.47 1337.08,1181.39"/>
    </edge>
    <edge id=":1351487430_2" function="internal">
        <lane id=":1351487430_2_0" index="0" allow="delivery bicycle pedestrian" speed="5.56" length="4.60" shape="1332.57,1182.18 1333.93,1182.10 1334.85,1181.97 1335.77,1181.74 1337.08,1181.39"/>
    </edge>
    <edge id=":1351487430_3" function="internal">
        <lane id=":1351487430_3_0" index="0" allow="delivery bicycle pedestrian" speed="3.65" length="4.67" shape="1332.57,1182.18 1333.80,1182.94 1334.23,1183.72 1333.86,1184.54 1332.68,1185.38"/>
    </edge>
    <edge id=":1369186652_0" function="internal">
        <lane id=":1369186652_0_0" index="0" allow="bicycle pedestrian" speed="2.78" length="5.10" width="2.00" shape="2817.46,1034.89 2816.15,1035.94 2815.28,1036.07 2814.85,1035.31 2814.84,1033.64"/>
    </edge>
    <edge id=":1369186652_1" function="internal">
        <lane id=":1369186652_1_0" index="0" allow="bicycle pedestrian" speed="2.78" length="6.13" width="2.00" shape="2814.25,1039.74 2814.84,1033.64"/>
    </edge>
    <edge id=":1369186673_0" function="internal">
        <lane id=":1369186673_0_0" index="0" allow="bicycle pedestrian" speed="2.78" length="4.91" width="2.00" shape="2803.03,1103.40 2802.99,1104.98 2803.41,1105.75 2804.29,1105.71 2805.62,1104.86"/>
    </edge>
    <edge id=":1369186673_1" function="internal">
        <lane id=":1369186673_1_0" index="0" allow="bicycle pedestrian" speed="2.78" length="5.86" width="2.00" shape="2803.03,1103.40 2802.14,1109.19"/>
    </edge>
    <edge id=":1369186731_0" function="internal">
        <lane id=":1369186731_0_0" index="0" disallow="tram rail_urban rail rail_electric ship" speed="5.39" length="5.08" shape="2887.54,1359.12 2886.04,1359.50 2884.94,1360.13 2884.23,1360.99 2883.92,1362.10"/>
    </edge>
    <edge id=":1369186731_1" function="internal">
        <lane id=":1369186731_1_0" index="0" allow="bicycle pedestrian" speed="2.78" length="4.87" width="2.00" shape="2887.54,1359.12 2886.11,1359.37 2885.13,1359.54 2884.14,1359.59 2882.71,1359.48"/>
    </edge>
    <edge id=":1369186731_2" function="internal">
        <lane id=":1369186731_2_0" index="0" disallow="tram rail_urban rail rail_electric ship" speed="8.33" length="5.44" shape="2884.49,1356.69 2883.92,1362.10"/>
    </edge>
    <edge id=":1369186731_3" function="internal">
        <lane id=":1369186731_3_0" index="0" allow="bicycle pedestrian" speed="4.45" length="3.65" width="2.00" shape="2884.49,1356.69 2884.25,1357.97 2883.87,1358.86 2883.36,1359.36 2882.71,1359.48"/>
    </edge>
    <edge id=":13796091_0" function="internal">
        <lane id=":13796091_0_0" index="0" disallow="tram rail_urban rail rail_electric ship" speed="13.89" length="10.41" shape="2704.86,1584.72 2711.99,1592.31"/>
    </edge>
    <edge id=":13796091_1" function="internal">
        <lane id=":13796091_1_0" index="0" disallow="tram rail_urban rail rail_electric ship" speed="6.60" length="4.13" shape="2704.28,1591.98 2706.33,1590.76 2708.05,1590.45"/>
    </edge>
    <edge id=":13796091_2" function="internal">
        <lane id=":13796091_2_0" index="0" disallow="tram rail_urban rail rail_electric ship" speed="6.60" length="4.49" shape="2708.05,1590.45 2708.30,1590.40 2710.18,1590.92 2711.99,1592.31"/>
    </edge>
    <edge id=":13796166_0" function="internal">
        <lane id=":13796166_0_0" index="0" disallow="tram rail_urban rail rail_electric ship" speed="7.51" length="3.52" shape="2806.28,1524.24 2804.29,1525.54 2803.15,1525.61"/>
    </edge>
    <edge id=":13796166_1" function="internal">
        <lane id=":13796166_1_0" index="0" disallow="tram rail_urban rail rail_electric ship" speed="3.65" length="2.20" shape="2806.28,1524.24 2804.87,1524.55 2804.15,1524.33"/>
    </edge>
    <edge id=":13796166_4" function="internal">
        <lane id=":13796166_4_0" index="0" disallow="tram rail_urban rail rail_electric ship" speed="7.51" length="8.05" shape="2803.15,1525.61 2801.90,1525.68 2799.11,1524.68 2795.93,1522.53"/>
    </edge>
    <edge id=":13796166_5" function="internal">
        <lane id=":13796166_5_0" index="0" disallow="tram rail_urban rail rail_electric ship" speed="3.65" length="2.48" shape="2804.15,1524.33 2804.02,1524.29 2803.72,1523.44 2803.98,1522.02"/>
    </edge>
    <edge id=":13796166_2" function="internal">
        <lane id=":13796166_2_0" index="0" disallow="tram rail_urban rail rail_electric ship" speed="6.60" length="10.08" shape="2797.34,1531.05 2798.79,1528.99 2799.03,1526.88 2798.08,1524.73 2795.93,1522.53"/>
    </edge>
    <edge id=":13796166_3" function="internal">
        <lane id=":13796166_3_0" index="0" disallow="tram rail_urban rail rail_electric ship" speed="11.11" length="11.24" shape="2797.34,1531.05 2799.38,1528.66 2800.68,1526.57 2801.97,1524.46 2803.98,1522.02"/>
    </edge>
    <edge id=":13932321_0" function="internal">
        <lane id=":13932321_0_0" index="0" allow="delivery bicycle pedestrian" speed="3.65" length="4.67" shape="3006.29,1157.45 3005.69,1158.76 3004.97,1159.28 3004.11,1159.01 3003.14,1157.95"/>
    </edge>
    <edge id=":1407730380_0" function="internal">
        <lane id=":1407730380_0_0" index="0" disallow="tram rail_urban rail rail_electric ship" speed="4.01" length="3.38" shape="2345.76,901.56 2346.71,901.43 2347.40,901.05 2347.83,900.43 2348.00,899.57"/>
    </edge>
    <edge id=":1407730380_1" function="internal">
        <lane id=":1407730380_1_0" index="0" allow="bicycle" speed="2.04" length="1.46" width="1.00" shape="2345.76,901.56 2346.14,901.80 2346.26,902.05 2346.14,902.30 2345.77,902.56"/>
    </edge>
    <edge id=":1407730380_2" function="internal">
        <lane id=":1407730380_2_0" index="0" allow="bicycle" speed="4.10" length="3.22" width="1.00" shape="2347.60,904.59 2347.57,903.70 2347.26,903.06 2346.66,902.68 2345.77,902.56"/>
    </edge>
    <edge id=":1407730380_3" function="internal">
        <lane id=":1407730380_3_0" index="0" disallow="tram rail_urban rail rail_electric ship" speed="13.89" length="5.22" shape="2348.70,904.71 2349.10,899.61"/>
        <lane id=":1407730380_3_1" index="1" disallow="tram rail_urban rail rail_electric ship" speed="13.89" length="5.22" shape="2351.88,905.06 2352.30,899.75"/>
    </edge>
    <edge id=":1426810900_0" function="internal">
        <lane id=":1426810900_0_0" index="0" allow="delivery bicycle pedestrian" speed="3.65" length="4.67" shape="2749.12,1340.45 2749.26,1341.89 2748.89,1342.70 2748.01,1342.89 2746.64,1342.47"/>
    </edge>
    <edge id=":1426810902_0" function="internal">
        <lane id=":1426810902_0_0" index="0" disallow="tram rail_urban rail rail_electric ship" speed="7.76" length="10.12" shape="2711.13,1298.64 2709.48,1296.13 2708.70,1293.75 2708.77,1291.48 2709.70,1289.33"/>
    </edge>
    <edge id=":1426810902_1" function="internal">
        <lane id=":1426810902_1_0" index="0" disallow="tram rail_urban rail rail_electric ship" speed="7.03" length="8.16" shape="2711.13,1298.64 2710.44,1297.22 2710.42,1295.49 2711.07,1293.44 2712.38,1291.07"/>
    </edge>
    <edge id=":1426810902_2" function="internal">
        <lane id=":1426810902_2_0" index="0" allow="delivery bicycle pedestrian" speed="3.65" length="4.67" shape="2711.13,1298.64 2710.99,1297.20 2711.36,1296.38 2712.24,1296.19 2713.61,1296.62"/>
    </edge>
    <edge id=":1426810902_3" function="internal">
        <lane id=":1426810902_3_0" index="0" disallow="tram rail_urban rail rail_electric ship" speed="13.89" length="9.04" shape="2699.21,1292.74 2700.80,1290.74 2701.89,1289.37 2702.92,1287.95 2704.34,1285.83"/>
        <lane id=":1426810902_3_1" index="1" disallow="tram rail_urban rail rail_electric ship" speed="13.89" length="9.04" shape="2701.72,1294.71 2703.37,1292.65 2704.49,1291.23 2705.56,1289.77 2707.02,1287.58"/>
        <lane id=":1426810902_3_2" index="2" disallow="tram rail_urban rail rail_electric ship" speed="13.89" length="9.04" shape="2704.24,1296.69 2705.94,1294.56 2707.09,1293.10 2708.19,1291.59 2709.70,1289.33"/>
        <lane id=":1426810902_3_3" index="3" disallow="tram rail_urban rail rail_electric ship" speed="13.89" length="9.04" shape="2706.75,1298.67 2708.50,1296.47 2709.70,1294.96 2710.83,1293.41 2712.38,1291.07"/>
    </edge>
    <edge id=":1426810902_7" function="internal">
        <lane id=":1426810902_7_0" index="0" allow="delivery bicycle pedestrian" speed="5.89" length="8.44" shape="2706.75,1298.67 2708.76,1296.54 2710.57,1295.49 2712.19,1295.52 2713.61,1296.62"/>
    </edge>
    <edge id=":1426844073_0" function="internal">
        <lane id=":1426844073_0_0" index="0" allow="bicycle pedestrian" speed="2.78" length="5.48" width="2.00" shape="2553.55,1616.64 2548.10,1616.08"/>
    </edge>
    <edge id=":1503785812_0" function="internal">
        <lane id=":1503785812_0_0" index="0" allow="rail rail_electric" speed="16.67" length="2.99" shape="1876.16,1157.83 1878.98,1158.84"/>
    </edge>
    <edge id=":1503785812_1" function="internal">
        <lane id=":1503785812_1_0" index="0" allow="rail rail_electric" speed="16.67" length="3.02" shape="1876.16,1157.83 1879.00,1158.86"/>
    </edge>
    <edge id=":1503785838_0" function="internal">
        <lane id=":1503785838_0_0" index="0" allow="rail rail_electric" speed="16.67" length="1.43" shape="1485.80,1181.73 1487.16,1181.27"/>
    </edge>
    <edge id=":1503785840_0" function="internal">
        <lane id=":1503785840_0_0" index="0" allow="rail rail_electric" speed="16.67" length="3.00" shape="1486.13,1193.05 1483.24,1193.86"/>
    </edge>
    <edge id=":1503785848_0" function="internal">
        <lane id=":1503785848_0_0" index="0" allow="rail rail_electric" speed="16.67" length="38.10" shape="1385.63,1215.44 1421.75,1203.31"/>
    </edge>
    <edge id=":1503785848_1" function="internal">
        <lane id=":1503785848_1_0" index="0" allow="rail rail_electric" speed="50.00" length="38.19" shape="1385.63,1215.44 1392.76,1213.56 1404.15,1210.79 1415.57,1208.13 1422.78,1206.59"/>
    </edge>
    <edge id=":1503785856_0" function="internal">
        <lane id=":1503785856_0_0" index="0" allow="rail rail_electric" speed="16.67" length="57.87" shape="1414.24,1214.04 1358.67,1230.20"/>
    </edge>
    <edge id=":1503785856_1" function="internal">
        <lane id=":1503785856_1_0" index="0" allow="rail rail_electric" speed="50.00" length="57.92" shape="1413.25,1210.82 1403.44,1214.44 1386.02,1220.68 1368.56,1226.82 1358.67,1230.20"/>
    </edge>
    <edge id=":1504013209_0" function="internal">
        <lane id=":1504013209_0_0" index="0" disallow="tram rail_urban rail rail_electric ship" speed="8.85" length="10.92" shape="1718.24,1587.23 1717.15,1587.85 1715.81,1589.56 1714.23,1592.35 1712.41,1596.23"/>
    </edge>
    <edge id=":1504013209_1" function="internal">
        <lane id=":1504013209_1_0" index="0" disallow="tram rail_urban rail rail_electric ship" speed="13.89" length="13.00" shape="1717.98,1584.59 1712.41,1596.23"/>
        <lane id=":1504013209_1_1" index="1" disallow="tram rail_urban rail rail_electric ship" speed="13.89" length="13.00" shape="1715.14,1583.13 1709.48,1594.94"/>
    </edge>
    <edge id=":1504013212_0" function="internal">
        <lane id=":1504013212_0_0" index="0" disallow="tram rail_urban rail rail_electric ship" speed="13.89" length="5.70" shape="1759.59,1599.65 1754.04,1597.82"/>
        <lane id=":1504013212_0_1" index="1" disallow="tram rail_urban rail rail_electric ship" speed="13.89" length="5.70" shape="1760.48,1596.57 1755.02,1594.78"/>
        <lane id=":1504013212_0_2" index="2" disallow="tram rail_urban rail rail_electric ship" speed="13.89" length="5.70" shape="1761.37,1593.50 1756.00,1591.73"/>
        <lane id=":1504013212_0_3" index="3" disallow="tram rail_urban rail rail_electric ship" speed="13.89" length="5.70" shape="1762.26,1590.43 1756.97,1588.68"/>
    </edge>
    <edge id=":1504013214_0" function="internal">
        <lane id=":1504013214_0_0" index="0" disallow="tram rail_urban rail rail_electric ship" speed="13.89" length="2.06" shape="1767.30,1601.96 1767.17,1601.88 1767.08,1601.83 1766.98,1601.79 1766.84,1601.75"/>
        <lane id=":1504013214_0_1" index="1" disallow="tram rail_urban rail rail_electric ship" speed="12.25" length="2.06" shape="1769.11,1599.33 1768.73,1599.07 1768.46,1598.92 1768.16,1598.80 1767.73,1598.67"/>
        <lane id=":1504013214_0_2" index="2" disallow="tram rail_urban rail rail_electric ship" speed="13.89" length="2.06" shape="1770.92,1596.69 1770.29,1596.26 1769.83,1596.01 1769.35,1595.82 1768.62,1595.60"/>
        <lane id=":1504013214_0_3" index="3" disallow="tram rail_urban rail rail_electric ship" speed="13.89" length="2.06" shape="1772.73,1594.05 1771.85,1593.46 1771.21,1593.10 1770.53,1592.83 1769.51,1592.53"/>
    </edge>
    <edge id=":1504989182_0" function="internal">
        <lane id=":1504989182_0_0" index="0" allow="rail rail_electric" speed="19.44" length="0.30" shape="2988.56,974.57 2988.72,974.33"/>
    </edge>
    <edge id=":1504989201_0" function="internal">
        <lane id=":1504989201_0_0" index="0" allow="rail rail_electric" speed="16.67" length="0.25" shape="2721.14,1199.01 2721.37,1198.93"/>
    </edge>
    <edge id=":1505255237_0" function="internal">
        <lane id=":1505255237_0_0" index="0" allow="delivery bicycle pedestrian" speed="5.56" length="1.61" shape="2335.27,969.70 2336.88,969.68"/>
    </edge>
    <edge id=":1505255237_1" function="internal">