<?xml version="1.0" encoding="UTF-8"?>

<!-- generated on 07/25/20 00:36:17 by Eclipse SUMO netconvert Version 1.2.0
<configuration xmlns:xsi="http://www.w3.org/2001/XMLSchema-instance" xsi:noNamespaceSchemaLocation="http://sumo.dlr.de/xsd/netconvertConfiguration.xsd">

    <input>
        <osm-files value="C:\Users\darkm\Documents\tre.osm"/>
    </input>

    <output>
        <output-file value="mapNetconvert.net.xml"/>
    </output>

    <projection>
        <proj.utm value="true"/>
    </projection>

    <processing>
        <geometry.remove value="true"/>
        <roundabouts.guess value="true"/>
    </processing>

    <junctions>
        <junctions.join value="true"/>
    </junctions>

</configuration>
-->

<net version="1.1" junctionCornerDetail="5" limitTurnSpeed="5.50" xmlns:xsi="http://www.w3.org/2001/XMLSchema-instance" xsi:noNamespaceSchemaLocation="http://sumo.dlr.de/xsd/net_file.xsd">

    <location netOffset="-476341.49,-5549697.80" convBoundary="0.00,0.00,1176.51,1324.44" origBoundary="8.669200,50.099104,8.685648,50.110997" projParameter="+proj=utm +zone=32 +ellps=WGS84 +datum=WGS84 +units=m +no_defs"/>

    <type id="highway.bridleway" priority="1" numLanes="1" speed="2.78" allow="pedestrian" oneway="1" width="2.00"/>
    <type id="highway.bus_guideway" priority="1" numLanes="1" speed="27.78" allow="bus" oneway="1"/>
    <type id="highway.cycleway" priority="1" numLanes="1" speed="8.33" allow="bicycle" oneway="0" width="1.00"/>
    <type id="highway.footway" priority="1" numLanes="1" speed="2.78" allow="pedestrian" oneway="1" width="2.00"/>
    <type id="highway.ford" priority="1" numLanes="1" speed="2.78" allow="army" oneway="0"/>
    <type id="highway.living_street" priority="2" numLanes="1" speed="2.78" disallow="tram rail_urban rail rail_electric ship" oneway="0"/>
    <type id="highway.motorway" priority="14" numLanes="2" speed="39.44" allow="private emergency authority army vip passenger hov taxi bus coach delivery truck trailer motorcycle evehicle custom1 custom2" oneway="1"/>
    <type id="highway.motorway_link" priority="9" numLanes="1" speed="22.22" allow="private emergency authority army vip passenger hov taxi bus coach delivery truck trailer motorcycle evehicle custom1 custom2" oneway="1"/>
    <type id="highway.path" priority="1" numLanes="1" speed="2.78" allow="bicycle pedestrian" oneway="1" width="2.00"/>
    <type id="highway.pedestrian" priority="1" numLanes="1" speed="2.78" allow="pedestrian" oneway="1" width="2.00"/>
    <type id="highway.primary" priority="12" numLanes="2" speed="27.78" disallow="tram rail_urban rail rail_electric ship" oneway="0"/>
    <type id="highway.primary_link" priority="7" numLanes="1" speed="22.22" disallow="tram rail_urban rail rail_electric ship" oneway="0"/>
    <type id="highway.raceway" priority="15" numLanes="2" speed="83.33" allow="vip" oneway="0"/>
    <type id="highway.residential" priority="3" numLanes="1" speed="13.89" disallow="tram rail_urban rail rail_electric ship" oneway="0"/>
    <type id="highway.secondary" priority="11" numLanes="2" speed="27.78" disallow="tram rail_urban rail rail_electric ship" oneway="0"/>
    <type id="highway.secondary_link" priority="6" numLanes="1" speed="22.22" disallow="tram rail_urban rail rail_electric ship" oneway="0"/>
    <type id="highway.service" priority="1" numLanes="1" speed="5.56" allow="delivery bicycle pedestrian" oneway="0"/>
    <type id="highway.stairs" priority="1" numLanes="1" speed="1.39" allow="pedestrian" oneway="1" width="2.00"/>
    <type id="highway.step" priority="1" numLanes="1" speed="1.39" allow="pedestrian" oneway="1" width="2.00"/>
    <type id="highway.steps" priority="1" numLanes="1" speed="1.39" allow="pedestrian" oneway="1" width="2.00"/>
    <type id="highway.tertiary" priority="10" numLanes="1" speed="22.22" disallow="tram rail_urban rail rail_electric ship" oneway="0"/>
    <type id="highway.tertiary_link" priority="5" numLanes="1" speed="22.22" disallow="tram rail_urban rail rail_electric ship" oneway="0"/>
    <type id="highway.track" priority="1" numLanes="1" speed="5.56" disallow="tram rail_urban rail rail_electric ship" oneway="0"/>
    <type id="highway.trunk" priority="13" numLanes="2" speed="27.78" disallow="tram rail_urban rail rail_electric bicycle pedestrian ship" oneway="0"/>
    <type id="highway.trunk_link" priority="8" numLanes="1" speed="22.22" disallow="tram rail_urban rail rail_electric bicycle pedestrian ship" oneway="0"/>
    <type id="highway.unclassified" priority="4" numLanes="1" speed="13.89" disallow="tram rail_urban rail rail_electric ship" oneway="0"/>
    <type id="highway.unsurfaced" priority="1" numLanes="1" speed="8.33" disallow="tram rail_urban rail rail_electric ship" oneway="0"/>
    <type id="railway.light_rail" priority="19" numLanes="1" speed="27.78" allow="rail_urban" oneway="1"/>
    <type id="railway.preserved" priority="16" numLanes="1" speed="27.78" allow="rail" oneway="1"/>
    <type id="railway.rail" priority="20" numLanes="1" speed="83.33" allow="rail rail_electric" oneway="1"/>
    <type id="railway.subway" priority="18" numLanes="1" speed="27.78" allow="rail_urban" oneway="1"/>
    <type id="railway.tram" priority="17" numLanes="1" speed="13.89" allow="tram" oneway="1"/>

    <edge id=":1103848207_0" function="internal">
        <lane id=":1103848207_0_0" index="0" allow="bicycle pedestrian" speed="2.78" length="0.29" width="2.00" shape="623.15,707.71 623.00,707.96"/>
    </edge>
    <edge id=":1689917381_0" function="internal">
        <lane id=":1689917381_0_0" index="0" disallow="tram rail_urban rail rail_electric ship" speed="3.65" length="4.67" shape="516.12,349.50 516.27,348.06 516.79,347.34 517.68,347.32 518.95,348.01"/>
    </edge>
    <edge id=":1689936939_0" function="internal">
        <lane id=":1689936939_0_0" index="0" disallow="tram rail_urban rail rail_electric ship" speed="3.65" length="4.67" shape="536.77,355.97 536.10,354.69 536.12,353.80 536.85,353.29 538.29,353.15"/>
    </edge>
    <edge id=":2407119054_0" function="internal">
        <lane id=":2407119054_0_0" index="0" disallow="tram rail_urban rail rail_electric ship" speed="13.89" length="8.83" shape="564.73,678.39 562.88,676.70 562.13,674.96 561.39,673.21 559.55,671.49"/>
    </edge>
    <edge id=":2407119054_1" function="internal">
        <lane id=":2407119054_1_0" index="0" disallow="tram rail_urban rail rail_electric ship" speed="13.89" length="7.96" shape="561.23,668.77 568.03,672.91"/>
    </edge>
    <edge id=":2407196951_0" function="internal">
        <lane id=":2407196951_0_0" index="0" disallow="tram rail_urban rail rail_electric ship" speed="13.89" length="5.13" shape="531.09,377.14 527.93,373.08"/>
        <lane id=":2407196951_0_1" index="1" disallow="tram rail_urban rail rail_electric ship" speed="13.89" length="5.13" shape="533.62,375.17 530.46,371.13"/>
    </edge>
    <edge id=":2407196951_2" function="internal">
        <lane id=":2407196951_2_0" index="0" disallow="tram rail_urban rail rail_electric ship" speed="3.65" length="2.34" shape="533.62,375.17 533.51,373.73 533.89,372.92"/>
    </edge>
    <edge id=":2407196951_6" function="internal">
        <lane id=":2407196951_6_0" index="0" disallow="tram rail_urban rail rail_electric ship" speed="3.65" length="2.34" shape="533.89,372.92 534.77,372.74 536.14,373.20"/>
    </edge>
    <edge id=":2407196951_3" function="internal">
        <lane id=":2407196951_3_0" index="0" disallow="tram rail_urban rail rail_electric ship" speed="13.89" length="5.10" shape="535.53,367.22 538.66,371.23"/>
        <lane id=":2407196951_3_1" index="1" disallow="tram rail_urban rail rail_electric ship" speed="13.89" length="5.10" shape="533.00,369.17 536.14,373.20"/>
    </edge>
    <edge id=":2407196951_5" function="internal">
        <lane id=":2407196951_5_0" index="0" disallow="tram rail_urban rail rail_electric ship" speed="3.65" length="2.34" shape="533.00,369.17 533.10,370.61 532.71,371.42"/>
    </edge>
    <edge id=":2407196951_7" function="internal">
        <lane id=":2407196951_7_0" index="0" disallow="tram rail_urban rail rail_electric ship" speed="3.65" length="2.34" shape="532.71,371.42 531.83,371.59 530.46,371.13"/>
    </edge>
    <edge id=":2647751182_0" function="internal">
        <lane id=":2647751182_0_0" index="0" disallow="tram rail_urban rail rail_electric ship" speed="8.33" length="4.33" shape="539.21,360.91 535.43,358.88"/>
        <lane id=":2647751182_0_1" index="1" disallow="tram rail_urban rail rail_electric ship" speed="8.33" length="4.33" shape="540.72,358.09 536.86,356.02"/>
    </edge>
    <edge id=":2647751182_2" function="internal">
        <lane id=":2647751182_2_0" index="0" disallow="tram rail_urban rail rail_electric ship" speed="3.65" length="2.34" shape="540.72,358.09 540.04,356.82 540.07,355.92"/>
    </edge>
    <edge id=":2647751182_5" function="internal">
        <lane id=":2647751182_5_0" index="0" disallow="tram rail_urban rail rail_electric ship" speed="3.65" length="2.34" shape="540.07,355.92 540.80,355.41 542.23,355.27"/>
    </edge>
    <edge id=":2647751182_3" function="internal">
        <lane id=":2647751182_3_0" index="0" disallow="tram rail_urban rail rail_electric ship" speed="8.33" length="4.38" shape="538.38,353.20 542.23,355.27"/>
    </edge>
    <edge id=":2647751182_4" function="internal">
        <lane id=":2647751182_4_0" index="0" disallow="tram rail_urban rail rail_electric ship" speed="3.65" length="2.34" shape="538.38,353.20 539.06,354.47 539.03,355.37"/>
    </edge>
    <edge id=":2647751182_6" function="internal">
        <lane id=":2647751182_6_0" index="0" disallow="tram rail_urban rail rail_electric ship" speed="3.65" length="2.34" shape="539.03,355.37 538.30,355.88 536.86,356.02"/>
    </edge>
    <edge id=":2647751205_0" function="internal">
        <lane id=":2647751205_0_0" index="0" disallow="tram rail_urban rail rail_electric ship" speed="13.89" length="5.58" shape="703.65,549.83 700.93,554.71"/>
    </edge>
    <edge id=":2647751205_1" function="internal">
        <lane id=":2647751205_1_0" index="0" disallow="tram rail_urban rail rail_electric ship" speed="3.65" length="2.34" shape="703.65,549.83 702.37,550.49 701.47,550.46"/>
    </edge>
    <edge id=":2647751205_4" function="internal">
        <lane id=":2647751205_4_0" index="0" disallow="tram rail_urban rail rail_electric ship" speed="3.65" length="2.34" shape="701.47,550.46 700.97,549.72 700.85,548.28"/>
    </edge>
    <edge id=":2647751205_2" function="internal">
        <lane id=":2647751205_2_0" index="0" disallow="tram rail_urban rail rail_electric ship" speed="13.89" length="5.58" shape="698.14,553.15 700.85,548.28"/>
    </edge>
    <edge id=":2647751205_3" function="internal">
        <lane id=":2647751205_3_0" index="0" disallow="tram rail_urban rail rail_electric ship" speed="3.65" length="2.34" shape="698.14,553.15 699.42,552.49 700.32,552.53"/>
    </edge>
    <edge id=":2647751205_5" function="internal">
        <lane id=":2647751205_5_0" index="0" disallow="tram rail_urban rail rail_electric ship" speed="3.65" length="2.34" shape="700.32,552.53 700.82,553.27 700.93,554.71"/>
    </edge>
    <edge id=":2647751209_0" function="internal">
        <lane id=":2647751209_0_0" index="0" allow="bicycle pedestrian" speed="2.78" length="3.63" width="2.00" shape="667.17,568.18 666.52,567.22 666.30,566.39 666.52,565.68 667.16,565.09"/>
    </edge>
    <edge id=":2647751235_0" function="internal">
        <lane id=":2647751235_0_0" index="0" allow="bicycle pedestrian" speed="2.78" length="3.69" width="2.00" shape="616.11,689.56 617.81,686.28"/>
    </edge>
    <edge id=":2647751237_0" function="internal">
        <lane id=":2647751237_0_0" index="0" allow="bicycle pedestrian" speed="2.78" length="5.00" width="2.00" shape="631.23,693.88 628.71,698.20"/>
    </edge>
    <edge id=":2671107512_0" function="internal">
        <lane id=":2671107512_0_0" index="0" disallow="tram rail_urban rail rail_electric ship" speed="3.65" length="4.67" shape="876.25,702.07 876.59,703.47 876.35,704.33 875.51,704.65 874.09,704.43"/>
    </edge>
    <edge id=":29549766_0" function="internal">
        <lane id=":29549766_0_0" index="0" disallow="tram rail_urban rail rail_electric ship" speed="8.33" length="9.37" shape="880.85,492.86 877.68,484.05"/>
    </edge>
    <edge id=":29549766_1" function="internal">
        <lane id=":29549766_1_0" index="0" disallow="tram rail_urban rail rail_electric ship" speed="6.13" length="7.75" shape="880.85,492.86 880.13,490.21 880.03,488.16 880.54,486.71 881.67,485.87"/>
    </edge>
    <edge id=":29549766_2" function="internal">
        <lane id=":29549766_2_0" index="0" disallow="tram rail_urban rail rail_electric ship" speed="6.08" length="7.77" shape="882.80,488.86 881.38,488.97 880.06,488.21 878.83,486.57 877.68,484.05"/>
    </edge>
    <edge id=":29549766_3" function="internal">
        <lane id=":29549766_3_0" index="0" disallow="tram rail_urban rail rail_electric ship" speed="3.65" length="4.67" shape="882.80,488.86 881.39,488.54 880.74,487.93 880.83,487.04 881.67,485.87"/>
    </edge>
    <edge id=":29549772_0" function="internal">
        <lane id=":29549772_0_0" index="0" disallow="tram rail_urban rail rail_electric ship" speed="3.65" length="4.67" shape="935.08,353.66 936.24,352.79 937.13,352.68 937.75,353.33 938.10,354.73"/>
    </edge>
    <edge id=":300931414_0" function="internal">
        <lane id=":300931414_0_0" index="0" disallow="tram rail_urban rail rail_electric ship" speed="8.33" length="5.03" shape="812.10,664.42 807.74,661.91"/>
    </edge>
    <edge id=":300931414_1" function="internal">
        <lane id=":300931414_1_0" index="0" disallow="tram rail_urban rail rail_electric ship" speed="3.65" length="4.67" shape="812.10,664.42 811.47,663.12 811.53,662.23 812.28,661.74 813.72,661.66"/>
    </edge>
    <edge id=":300931414_2" function="internal">
        <lane id=":300931414_2_0" index="0" disallow="tram rail_urban rail rail_electric ship" speed="8.33" length="5.07" shape="809.32,659.13 813.72,661.66"/>
    </edge>
    <edge id=":300931414_3" function="internal">
        <lane id=":300931414_3_0" index="0" disallow="tram rail_urban rail rail_electric ship" speed="3.65" length="4.67" shape="809.32,659.13 809.97,660.42 809.92,661.31 809.18,661.81 807.74,661.91"/>
    </edge>
    <edge id=":306691841_0" function="internal">
        <lane id=":306691841_0_0" index="0" disallow="tram rail_urban rail rail_electric ship" speed="8.33" length="4.98" shape="764.04,637.12 759.73,634.64"/>
    </edge>
    <edge id=":306691841_1" function="internal">
        <lane id=":306691841_1_0" index="0" disallow="tram rail_urban rail rail_electric ship" speed="3.65" length="2.34" shape="764.04,637.12 763.40,635.83 763.44,634.94"/>
    </edge>
    <edge id=":306691841_4" function="internal">
        <lane id=":306691841_4_0" index="0" disallow="tram rail_urban rail rail_electric ship" speed="3.65" length="2.34" shape="763.44,634.94 764.19,634.44 765.62,634.34"/>
    </edge>
    <edge id=":306691841_2" function="internal">
        <lane id=":306691841_2_0" index="0" disallow="tram rail_urban rail rail_electric ship" speed="8.33" length="4.93" shape="761.35,631.88 765.62,634.34"/>
    </edge>
    <edge id=":306691841_3" function="internal">
        <lane id=":306691841_3_0" index="0" disallow="tram rail_urban rail rail_electric ship" speed="3.65" length="2.34" shape="761.35,631.88 761.98,633.17 761.92,634.07"/>
    </edge>
    <edge id=":306691841_5" function="internal">
        <lane id=":306691841_5_0" index="0" disallow="tram rail_urban rail rail_electric ship" speed="3.65" length="2.34" shape="761.92,634.07 761.17,634.55 759.73,634.64"/>
    </edge>
    <edge id=":34991696_0" function="internal">
        <lane id=":34991696_0_0" index="0" disallow="tram rail_urban rail rail_electric ship" speed="6.50" length="9.03" shape="913.22,441.40 910.80,440.88 908.80,441.26 907.21,442.55 906.04,444.73"/>
    </edge>
    <edge id=":34991696_1" function="internal">
        <lane id=":34991696_1_0" index="0" disallow="tram rail_urban rail rail_electric ship" speed="8.03" length="14.19" shape="913.22,441.40 909.79,439.56 907.77,437.06 907.13,433.92 907.90,430.12"/>
    </edge>
    <edge id=":34991696_2" function="internal">
        <lane id=":34991696_2_0" index="0" disallow="tram rail_urban rail rail_electric ship" speed="3.65" length="4.67" shape="913.22,441.40 912.37,440.23 912.27,439.34 912.92,438.73 914.33,438.40"/>
    </edge>
    <edge id=":34991696_3" function="internal">
        <lane id=":34991696_3_0" index="0" disallow="tram rail_urban rail rail_electric ship" speed="6.54" length="9.07" shape="910.91,431.19 910.43,433.62 910.83,435.62 912.13,437.22 914.33,438.40"/>
    </edge>
    <edge id=":34991696_4" function="internal">
        <lane id=":34991696_4_0" index="0" disallow="tram rail_urban rail rail_electric ship" speed="8.33" length="14.39" shape="910.91,431.19 906.04,444.73"/>
    </edge>
    <edge id=":34991696_5" function="internal">
        <lane id=":34991696_5_0" index="0" disallow="tram rail_urban rail rail_electric ship" speed="3.65" length="4.67" shape="910.91,431.19 909.76,432.06 908.87,432.16 908.25,431.52 907.90,430.12"/>
    </edge>
    <edge id=":34991696_6" function="internal">
        <lane id=":34991696_6_0" index="0" disallow="tram rail_urban rail rail_electric ship" speed="8.33" length="14.36" shape="903.04,443.63 907.90,430.12"/>
    </edge>
    <edge id=":34991696_7" function="internal">
        <lane id=":34991696_7_0" index="0" disallow="tram rail_urban rail rail_electric ship" speed="8.00" length="14.20" shape="903.04,443.63 904.87,440.20 907.37,438.18 910.52,437.58 914.33,438.40"/>
    </edge>
    <edge id=":34991696_8" function="internal">
        <lane id=":34991696_8_0" index="0" disallow="tram rail_urban rail rail_electric ship" speed="3.65" length="4.67" shape="903.04,443.63 904.20,442.78 905.09,442.68 905.70,443.33 906.04,444.73"/>
    </edge>
    <edge id=":34991697_0" function="internal">
        <lane id=":34991697_0_0" index="0" disallow="tram rail_urban rail rail_electric ship" speed="6.51" length="9.03" shape="986.25,468.27 983.83,467.75 981.82,468.12 980.23,469.40 979.05,471.58"/>
    </edge>
    <edge id=":34991697_1" function="internal">
        <lane id=":34991697_1_0" index="0" disallow="tram rail_urban rail rail_electric ship" speed="8.33" length="11.24" shape="986.25,468.27 975.71,464.38"/>
    </edge>
    <edge id=":34991697_2" function="internal">
        <lane id=":34991697_2_0" index="0" disallow="tram rail_urban rail rail_electric ship" speed="3.65" length="4.67" shape="986.25,468.27 985.40,467.10 985.31,466.21 985.96,465.60 987.36,465.27"/>
    </edge>
    <edge id=":34991697_3" function="internal">
        <lane id=":34991697_3_0" index="0" disallow="tram rail_urban rail rail_electric ship" speed="6.57" length="9.11" shape="983.96,458.01 983.47,460.45 983.87,462.48 985.17,464.08 987.36,465.27"/>
    </edge>
    <edge id=":34991697_4" function="internal">
        <lane id=":34991697_4_0" index="0" disallow="tram rail_urban rail rail_electric ship" speed="8.33" length="14.42" shape="983.96,458.01 979.05,471.58"/>
    </edge>
    <edge id=":34991697_5" function="internal">
        <lane id=":34991697_5_0" index="0" disallow="tram rail_urban rail rail_electric ship" speed="7.30" length="11.75" shape="983.96,458.01 982.34,461.53 980.43,463.76 978.22,464.71 975.71,464.38"/>
    </edge>
    <edge id=":34991697_6" function="internal">
        <lane id=":34991697_6_0" index="0" disallow="tram rail_urban rail rail_electric ship" speed="8.33" length="11.25" shape="976.81,461.37 987.36,465.27"/>
    </edge>
    <edge id=":34991697_7" function="internal">
        <lane id=":34991697_7_0" index="0" disallow="tram rail_urban rail rail_electric ship" speed="7.33" length="11.75" shape="976.81,461.37 978.94,462.74 980.02,464.90 980.06,467.84 979.05,471.58"/>
    </edge>
    <edge id=":34991697_8" function="internal">
        <lane id=":34991697_8_0" index="0" disallow="tram rail_urban rail rail_electric ship" speed="3.65" length="4.67" shape="976.81,461.37 977.66,462.54 977.76,463.43 977.11,464.04 975.71,464.38"/>
    </edge>
    <edge id=":34991699_0" function="internal">
        <lane id=":34991699_0_0" index="0" disallow="tram rail_urban rail rail_electric ship" speed="3.65" length="4.67" shape="1125.84,516.52 1126.69,517.69 1126.78,518.58 1126.13,519.19 1124.72,519.52"/>
    </edge>
    <edge id=":43584739_0" function="internal">
        <lane id=":43584739_0_0" index="0" disallow="tram rail_urban rail rail_electric ship" speed="13.89" length="1.09" shape="868.18,549.42 867.81,549.26 867.55,549.15 867.31,549.03 866.95,548.83"/>
        <lane id=":43584739_0_1" index="1" disallow="tram rail_urban rail rail_electric ship" speed="13.89" length="1.09" shape="869.26,546.40 869.04,546.30 868.89,546.24 868.74,546.17 868.53,546.05"/>
    </edge>
    <edge id=":43584739_2" function="internal">
        <lane id=":43584739_2_0" index="0" disallow="tram rail_urban rail rail_electric ship" speed="13.89" length="0.27" shape="870.11,543.27 870.18,543.31 870.23,543.33 870.28,543.35 870.35,543.38"/>
    </edge>
    <edge id=":5244077979_0" function="internal">
        <lane id=":5244077979_0_0" index="0" disallow="tram rail_urban rail rail_electric ship" speed="8.33" length="5.24" shape="653.71,558.49 648.59,557.34"/>
    </edge>
    <edge id=":562333_0" function="internal">
        <lane id=":562333_0_0" index="0" disallow="tram rail_urban rail rail_electric ship" speed="3.65" length="4.67" shape="802.14,349.18 803.40,348.47 804.29,348.47 804.83,349.19 805.00,350.62"/>
    </edge>
    <edge id=":6128198740_0" function="internal">
        <lane id=":6128198740_0_0" index="0" disallow="tram rail_urban rail rail_electric ship" speed="3.65" length="4.67" shape="397.42,570.83 396.81,569.52 396.87,568.63 397.63,568.15 399.07,568.09"/>
    </edge>
    <edge id=":660303646_0" function="internal">
        <lane id=":660303646_0_0" index="0" disallow="tram rail_urban rail rail_electric ship" speed="13.89" length="0.28" shape="804.57,351.49 804.44,351.74"/>
    </edge>
    <edge id=":660303646_1" function="internal">
        <lane id=":660303646_1_0" index="0" disallow="tram rail_urban rail rail_electric ship" speed="13.89" length="0.31" shape="801.57,350.33 801.71,350.05"/>
    </edge>
    <edge id=":7229608328_0" function="internal">
        <lane id=":7229608328_0_0" index="0" disallow="tram rail_urban rail rail_electric ship" speed="8.33" length="9.41" shape="834.17,677.37 826.05,672.61"/>
    </edge>
    <edge id=":7229608328_1" function="internal">
        <lane id=":7229608328_1_0" index="0" allow="delivery bicycle pedestrian" speed="6.81" length="5.23" shape="834.17,677.37 831.91,675.57 830.82,673.49"/>
    </edge>
    <edge id=":7229608328_2" function="internal">
        <lane id=":7229608328_2_0" index="0" disallow="tram rail_urban rail rail_electric ship" speed="3.65" length="2.34" shape="834.17,677.37 833.54,676.07 833.60,675.18"/>
    </edge>
    <edge id=":7229608328_9" function="internal">
        <lane id=":7229608328_9_0" index="0" allow="delivery bicycle pedestrian" speed="6.81" length="5.23" shape="830.82,673.49 830.90,671.15 832.16,668.55"/>
    </edge>
    <edge id=":7229608328_10" function="internal">
        <lane id=":7229608328_10_0" index="0" disallow="tram rail_urban rail rail_electric ship" speed="3.65" length="2.34" shape="833.60,675.18 834.35,674.69 835.79,674.61"/>
    </edge>
    <edge id=":7229608328_3" function="internal">
        <lane id=":7229608328_3_0" index="0" disallow="tram rail_urban rail rail_electric ship" speed="4.98" length="5.07" shape="834.81,670.33 834.20,671.60 834.16,672.73 834.69,673.74 835.79,674.61"/>
    </edge>
    <edge id=":7229608328_4" function="internal">
        <lane id=":7229608328_4_0" index="0" disallow="tram rail_urban rail rail_electric ship" speed="6.95" length="10.18" shape="834.81,670.33 832.93,672.47 830.84,673.56 828.55,673.61 826.05,672.61"/>
    </edge>
    <edge id=":7229608328_5" function="internal">
        <lane id=":7229608328_5_0" index="0" allow="delivery bicycle pedestrian" speed="3.65" length="4.67" shape="834.81,670.33 833.48,670.88 832.59,670.77 832.15,669.99 832.16,668.55"/>
    </edge>
    <edge id=":7229608328_6" function="internal">
        <lane id=":7229608328_6_0" index="0" allow="delivery bicycle pedestrian" speed="5.25" length="5.25" shape="827.67,669.85 828.92,670.34 830.09,670.28 831.17,669.69 832.16,668.55"/>
    </edge>
    <edge id=":7229608328_7" function="internal">
        <lane id=":7229608328_7_0" index="0" disallow="tram rail_urban rail rail_electric ship" speed="8.33" length="9.41" shape="827.67,669.85 835.79,674.61"/>
    </edge>
    <edge id=":7229608328_8" function="internal">
        <lane id=":7229608328_8_0" index="0" disallow="tram rail_urban rail rail_electric ship" speed="3.65" length="2.34" shape="827.67,669.85 828.30,671.14 828.24,672.04"/>
    </edge>
    <edge id=":7229608328_11" function="internal">
        <lane id=":7229608328_11_0" index="0" disallow="tram rail_urban rail rail_electric ship" speed="3.65" length="2.34" shape="828.24,672.04 827.49,672.52 826.05,672.61"/>
    </edge>
    <edge id=":7229608329_0" function="internal">
        <lane id=":7229608329_0_0" index="0" allow="delivery bicycle pedestrian" speed="3.65" length="4.67" shape="850.74,640.89 852.08,640.34 852.96,640.46 853.40,641.23 853.40,642.68"/>
    </edge>
    <edge id=":7362798503_0" function="internal">
        <lane id=":7362798503_0_0" index="0" allow="delivery bicycle pedestrian" speed="3.65" length="4.67" shape="574.33,589.53 573.08,590.24 572.18,590.24 571.65,589.53 571.47,588.09"/>
    </edge>
    <edge id=":7362798504_0" function="internal">
        <lane id=":7362798504_0_0" index="0" allow="delivery bicycle pedestrian" speed="4.98" length="5.07" shape="602.12,541.33 600.82,540.81 599.68,540.85 598.72,541.45 597.92,542.59"/>
    </edge>
    <edge id=":7362798504_1" function="internal">
        <lane id=":7362798504_1_0" index="0" disallow="tram rail_urban rail rail_electric ship" speed="8.33" length="9.41" shape="602.12,541.33 593.95,536.65"/>
    </edge>
    <edge id=":7362798504_2" function="internal">
        <lane id=":7362798504_2_0" index="0" disallow="tram rail_urban rail rail_electric ship" speed="5.23" length="5.22" shape="595.06,541.16 595.55,539.75 595.54,538.53 595.00,537.50 593.95,536.65"/>
    </edge>
    <edge id=":7362798504_3" function="internal">
        <lane id=":7362798504_3_0" index="0" allow="delivery bicycle pedestrian" speed="3.65" length="4.67" shape="595.06,541.16 596.31,540.44 597.20,540.45 597.74,541.16 597.92,542.59"/>
    </edge>
    <edge id=":cluster_1103848206_2647751236_559983_0" function="internal">
        <lane id=":cluster_1103848206_2647751236_559983_0_0" index="0" disallow="tram rail_urban rail rail_electric ship" speed="11.75" length="32.71" shape="629.75,689.98 623.85,698.46 617.52,703.24 610.78,704.34 603.61,701.75"/>
    </edge>
    <edge id=":cluster_1103848206_2647751236_559983_1" function="internal">
        <lane id=":cluster_1103848206_2647751236_559983_1_0" index="0" disallow="tram rail_urban rail rail_electric ship" speed="10.79" length="27.44" shape="626.95,688.44 621.92,695.74 616.64,699.94 611.08,701.03 605.26,699.01"/>
    </edge>
    <edge id=":cluster_1103848206_2647751236_559983_2" function="internal">
        <lane id=":cluster_1103848206_2647751236_559983_2_0" index="0" allow="bicycle pedestrian" speed="5.06" length="6.18" width="2.00" shape="626.95,688.44 620.81,689.17"/>
    </edge>
    <edge id=":cluster_1103848206_2647751236_559983_3" function="internal">
        <lane id=":cluster_1103848206_2647751236_559983_3_0" index="0" disallow="tram rail_urban rail rail_electric ship" speed="3.65" length="2.34" shape="626.95,688.44 625.67,689.10 624.77,689.07"/>
    </edge>
    <edge id=":cluster_1103848206_2647751236_559983_10" function="internal">
        <lane id=":cluster_1103848206_2647751236_559983_10_0" index="0" allow="bicycle pedestrian" speed="5.06" length="4.82" width="2.00" shape="620.81,689.17 616.02,689.74"/>
    </edge>
    <edge id=":cluster_1103848206_2647751236_559983_11" function="internal">
        <lane id=":cluster_1103848206_2647751236_559983_11_0" index="0" disallow="tram rail_urban rail rail_electric ship" speed="3.65" length="2.34" shape="624.77,689.07 624.26,688.33 624.14,686.89"/>
    </edge>
    <edge id=":cluster_1103848206_2647751236_559983_4" function="internal">
        <lane id=":cluster_1103848206_2647751236_559983_4_0" index="0" allow="bicycle pedestrian" speed="7.38" length="12.51" width="2.00" shape="606.91,696.26 609.12,696.84 611.37,695.95 613.67,693.58 616.02,689.74"/>
    </edge>
    <edge id=":cluster_1103848206_2647751236_559983_5" function="internal">
        <lane id=":cluster_1103848206_2647751236_559983_5_0" index="0" disallow="tram rail_urban rail rail_electric ship" speed="9.26" length="19.92" shape="606.91,696.26 610.18,697.01 613.68,695.43 617.40,691.55 621.34,685.35"/>
    </edge>
    <edge id=":cluster_1103848206_2647751236_559983_6" function="internal">
        <lane id=":cluster_1103848206_2647751236_559983_6_0" index="0" disallow="tram rail_urban rail rail_electric ship" speed="3.65" length="1.96" shape="606.91,696.26 607.52,697.57 607.48,698.09"/>
    </edge>
    <edge id=":cluster_1103848206_2647751236_559983_12" function="internal">
        <lane id=":cluster_1103848206_2647751236_559983_12_0" index="0" disallow="tram rail_urban rail rail_electric ship" speed="3.65" length="2.71" shape="607.48,698.09 607.46,698.46 606.70,698.94 605.26,699.01"/>
    </edge>
    <edge id=":cluster_1103848206_2647751236_559983_7" function="internal">