<?xml version="1.0" encoding="UTF-8"?>

<!-- generated on 07/22/20 22:19:49 by Eclipse SUMO netconvert Version 1.2.0
<configuration xmlns:xsi="http://www.w3.org/2001/XMLSchema-instance" xsi:noNamespaceSchemaLocation="http://sumo.dlr.de/xsd/netconvertConfiguration.xsd">

    <input>
        <osm-files value="C:\Users\darkm\Documents\gy.osm"/>
    </input>

    <output>
        <output-file value="mapNetconvert.net.xml"/>
    </output>

    <projection>
        <proj.utm value="true"/>
    </projection>

    <processing>
        <geometry.remove value="true"/>
        <roundabouts.guess value="true"/>
    </processing>

    <junctions>
        <junctions.join value="true"/>
    </junctions>

</configuration>
-->

<net version="1.1" junctionCornerDetail="5" limitTurnSpeed="5.50" xmlns:xsi="http://www.w3.org/2001/XMLSchema-instance" xsi:noNamespaceSchemaLocation="http://sumo.dlr.de/xsd/net_file.xsd">

    <location netOffset="-475635.58,-5549807.93" convBoundary="0.00,0.00,5143.08,1964.04" origBoundary="8.611691,50.088670,8.731139,50.117881" projParameter="+proj=utm +zone=32 +ellps=WGS84 +datum=WGS84 +units=m +no_defs"/>

    <type id="highway.bridleway" priority="1" numLanes="1" speed="2.78" allow="pedestrian" oneway="1" width="2.00"/>
    <type id="highway.bus_guideway" priority="1" numLanes="1" speed="27.78" allow="bus" oneway="1"/>
    <type id="highway.cycleway" priority="1" numLanes="1" speed="8.33" allow="bicycle" oneway="0" width="1.00"/>
    <type id="highway.footway" priority="1" numLanes="1" speed="2.78" allow="pedestrian" oneway="1" width="2.00"/>
    <type id="highway.ford" priority="1" numLanes="1" speed="2.78" allow="army" oneway="0"/>
    <type id="highway.living_street" priority="2" numLanes="1" speed="2.78" disallow="tram rail_urban rail rail_electric ship" oneway="0"/>
    <type id="highway.motorway" priority="14" numLanes="2" speed="39.44" allow="private emergency authority army vip passenger hov taxi bus coach delivery truck trailer motorcycle evehicle custom1 custom2" oneway="1"/>
    <type id="highway.motorway_link" priority="9" numLanes="1" speed="22.22" allow="private emergency authority army vip passenger hov taxi bus coach delivery truck trailer motorcycle evehicle custom1 custom2" oneway="1"/>
    <type id="highway.path" priority="1" numLanes="1" speed="2.78" allow="bicycle pedestrian" oneway="1" width="2.00"/>
    <type id="highway.pedestrian" priority="1" numLanes="1" speed="2.78" allow="pedestrian" oneway="1" width="2.00"/>
    <type id="highway.primary" priority="12" numLanes="2" speed="27.78" disallow="tram rail_urban rail rail_electric ship" oneway="0"/>
    <type id="highway.primary_link" priority="7" numLanes="1" speed="22.22" disallow="tram rail_urban rail rail_electric ship" oneway="0"/>
    <type id="highway.raceway" priority="15" numLanes="2" speed="83.33" allow="vip" oneway="0"/>
    <type id="highway.residential" priority="3" numLanes="1" speed="13.89" disallow="tram rail_urban rail rail_electric ship" oneway="0"/>
    <type id="highway.secondary" priority="11" numLanes="2" speed="27.78" disallow="tram rail_urban rail rail_electric ship" oneway="0"/>
    <type id="highway.secondary_link" priority="6" numLanes="1" speed="22.22" disallow="tram rail_urban rail rail_electric ship" oneway="0"/>
    <type id="highway.service" priority="1" numLanes="1" speed="5.56" allow="delivery bicycle pedestrian" oneway="0"/>
    <type id="highway.stairs" priority="1" numLanes="1" speed="1.39" allow="pedestrian" oneway="1" width="2.00"/>
    <type id="highway.step" priority="1" numLanes="1" speed="1.39" allow="pedestrian" oneway="1" width="2.00"/>
    <type id="highway.steps" priority="1" numLanes="1" speed="1.39" allow="pedestrian" oneway="1" width="2.00"/>
    <type id="highway.tertiary" priority="10" numLanes="1" speed="22.22" disallow="tram rail_urban rail rail_electric ship" oneway="0"/>
    <type id="highway.tertiary_link" priority="5" numLanes="1" speed="22.22" disallow="tram rail_urban rail rail_electric ship" oneway="0"/>
    <type id="highway.track" priority="1" numLanes="1" speed="5.56" disallow="tram rail_urban rail rail_electric ship" oneway="0"/>
    <type id="highway.trunk" priority="13" numLanes="2" speed="27.78" disallow="tram rail_urban rail rail_electric bicycle pedestrian ship" oneway="0"/>
    <type id="highway.trunk_link" priority="8" numLanes="1" speed="22.22" disallow="tram rail_urban rail rail_electric bicycle pedestrian ship" oneway="0"/>
    <type id="highway.unclassified" priority="4" numLanes="1" speed="13.89" disallow="tram rail_urban rail rail_electric ship" oneway="0"/>
    <type id="highway.unsurfaced" priority="1" numLanes="1" speed="8.33" disallow="tram rail_urban rail rail_electric ship" oneway="0"/>
    <type id="railway.light_rail" priority="19" numLanes="1" speed="27.78" allow="rail_urban" oneway="1"/>
    <type id="railway.preserved" priority="16" numLanes="1" speed="27.78" allow="rail" oneway="1"/>
    <type id="railway.rail" priority="20" numLanes="1" speed="83.33" allow="rail rail_electric" oneway="1"/>
    <type id="railway.subway" priority="18" numLanes="1" speed="27.78" allow="rail_urban" oneway="1"/>
    <type id="railway.tram" priority="17" numLanes="1" speed="13.89" allow="tram" oneway="1"/>

    <edge id=":1015740860_0" function="internal">
        <lane id=":1015740860_0_0" index="0" disallow="tram rail_urban rail rail_electric ship" speed="13.89" length="7.93" shape="2443.65,1000.00 2446.01,999.67 2447.59,999.10 2449.17,998.58 2451.53,998.43"/>
        <lane id=":1015740860_0_1" index="1" disallow="tram rail_urban rail rail_electric ship" speed="13.89" length="7.93" shape="2443.65,1000.00 2445.97,1000.17 2447.52,1000.70 2449.07,1001.28 2451.39,1001.63"/>
        <lane id=":1015740860_0_2" index="2" disallow="tram rail_urban rail rail_electric ship" speed="13.89" length="7.93" shape="2443.76,1003.20 2446.01,1003.37 2447.51,1003.90 2449.01,1004.48 2451.26,1004.82"/>
    </edge>
    <edge id=":1426837323_0" function="internal">
        <lane id=":1426837323_0_0" index="0" disallow="tram rail_urban rail rail_electric ship" speed="3.65" length="4.67" shape="1932.60,1049.46 1931.47,1048.55 1931.15,1047.72 1931.62,1046.96 1932.89,1046.27"/>
    </edge>
    <edge id=":1438388149_0" function="internal">
        <lane id=":1438388149_0_0" index="0" disallow="tram rail_urban rail rail_electric ship" speed="13.89" length="5.07" shape="2471.27,575.13 2476.09,573.53"/>
    </edge>
    <edge id=":1478148935_0" function="internal">
        <lane id=":1478148935_0_0" index="0" disallow="tram rail_urban rail rail_electric ship" speed="11.11" length="0.22" shape="2139.08,748.08 2138.90,748.22"/>
    </edge>
    <edge id=":1478148935_1" function="internal">
        <lane id=":1478148935_1_0" index="0" disallow="tram rail_urban rail rail_electric ship" speed="11.11" length="0.31" shape="2136.90,745.72 2137.14,745.53"/>
    </edge>
    <edge id=":1505244733_0" function="internal">
        <lane id=":1505244733_0_0" index="0" allow="bicycle pedestrian" speed="2.78" length="4.54" width="2.00" shape="2383.74,717.55 2379.21,717.32"/>
    </edge>
    <edge id=":1505244736_0" function="internal">
        <lane id=":1505244736_0_0" index="0" allow="bicycle pedestrian" speed="2.78" length="3.04" width="2.00" shape="2372.29,717.20 2369.26,717.37"/>
    </edge>
    <edge id=":162654_0" function="internal">
        <lane id=":162654_0_0" index="0" disallow="tram rail_urban rail rail_electric ship" speed="3.65" length="4.67" shape="2250.94,664.67 2250.41,663.32 2250.54,662.44 2251.33,662.01 2252.77,662.04"/>
    </edge>
    <edge id=":162656_0" function="internal">
        <lane id=":162656_0_0" index="0" disallow="tram rail_urban rail rail_electric ship" speed="4.25" length="5.16" shape="2180.19,720.73 2179.56,719.22 2178.76,718.53 2177.78,718.64 2176.63,719.56"/>
    </edge>
    <edge id=":162656_1" function="internal">
        <lane id=":162656_1_0" index="0" disallow="tram rail_urban rail rail_electric ship" speed="3.65" length="4.67" shape="2174.29,717.37 2175.70,717.05 2176.55,717.30 2176.86,718.14 2176.63,719.56"/>
    </edge>
    <edge id=":1638052183_0" function="internal">
        <lane id=":1638052183_0_0" index="0" disallow="tram rail_urban rail rail_electric ship" speed="13.89" length="5.18" shape="2499.50,1082.94 2499.08,1088.01"/>
        <lane id=":1638052183_0_1" index="1" disallow="tram rail_urban rail rail_electric ship" speed="13.89" length="5.18" shape="2496.32,1082.58 2495.89,1087.84"/>
    </edge>
    <edge id=":1678932235_0" function="internal">
        <lane id=":1678932235_0_0" index="0" disallow="tram rail_urban rail rail_electric ship" speed="13.89" length="20.02" shape="2080.26,643.51 2074.87,645.49 2070.88,646.04 2066.89,646.59 2061.49,648.58"/>
        <lane id=":1678932235_0_1" index="1" disallow="tram rail_urban rail rail_electric ship" speed="13.89" length="20.02" shape="2078.87,640.63 2073.20,642.74 2068.99,643.40 2064.81,644.04 2059.24,646.12"/>
    </edge>
    <edge id=":1678932235_2" function="internal">
        <lane id=":1678932235_2_0" index="0" disallow="tram rail_urban rail rail_electric ship" speed="3.65" length="2.55" shape="2077.48,637.75 2076.05,637.55 2075.34,637.00 2075.34,636.78"/>
    </edge>
    <edge id=":1678932235_4" function="internal">
        <lane id=":1678932235_4_0" index="0" disallow="tram rail_urban rail rail_electric ship" speed="3.65" length="2.12" shape="2075.34,636.78 2075.35,636.11 2076.09,634.86"/>
    </edge>
    <edge id=":1678932235_3" function="internal">
        <lane id=":1678932235_3_0" index="0" disallow="tram rail_urban rail rail_electric ship" speed="13.89" length="19.15" shape="2057.60,639.67 2063.57,637.65 2068.45,636.68 2072.54,636.01 2076.09,634.86"/>
    </edge>
    <edge id=":1842180308_0" function="internal">
        <lane id=":1842180308_0_0" index="0" disallow="tram rail_urban rail rail_electric ship" speed="13.89" length="8.19" shape="2390.48,727.19 2391.92,725.27 2392.59,723.73 2393.25,722.18 2394.66,720.24"/>
        <lane id=":1842180308_0_1" index="1" disallow="tram rail_urban rail rail_electric ship" speed="13.89" length="8.19" shape="2390.48,727.19 2392.29,725.60 2393.78,724.80 2395.26,723.99 2397.04,722.38"/>
        <lane id=":1842180308_0_2" index="2" disallow="tram rail_urban rail rail_electric ship" speed="13.89" length="8.19" shape="2392.83,729.36 2394.65,727.77 2396.14,726.96 2397.63,726.14 2399.42,724.52"/>
    </edge>
    <edge id=":1842180311_0" function="internal">
        <lane id=":1842180311_0_0" index="0" disallow="tram rail_urban rail rail_electric ship" speed="8.33" length="5.38" shape="2357.85,736.04 2353.31,733.15"/>
    </edge>
    <edge id=":1842180338_0" function="internal">
        <lane id=":1842180338_0_0" index="0" disallow="tram rail_urban rail rail_electric ship" speed="6.61" length="9.09" shape="2372.67,761.80 2371.95,759.41 2370.65,757.79 2368.76,756.96 2366.30,756.90"/>
    </edge>
    <edge id=":1842180338_1" function="internal">
        <lane id=":1842180338_1_0" index="0" disallow="tram rail_urban rail rail_electric ship" speed="13.89" length="10.82" shape="2372.67,761.80 2371.10,751.05"/>
        <lane id=":1842180338_1_1" index="1" disallow="tram rail_urban rail rail_electric ship" speed="13.89" length="10.82" shape="2375.83,761.30 2374.27,750.64"/>
    </edge>
    <edge id=":1842180338_3" function="internal">
        <lane id=":1842180338_3_0" index="0" disallow="tram rail_urban rail rail_electric ship" speed="13.89" length="10.24" shape="2376.47,755.67 2366.30,756.90"/>
        <lane id=":1842180338_3_1" index="1" disallow="tram rail_urban rail rail_electric ship" speed="13.89" length="10.24" shape="2376.08,752.49 2365.92,753.73"/>
    </edge>
    <edge id=":1842342965_0" function="internal">
        <lane id=":1842342965_0_0" index="0" disallow="tram rail_urban rail rail_electric ship" speed="11.11" length="15.01" shape="2042.81,649.92 2039.11,649.48 2035.51,648.46 2032.01,647.06 2028.60,645.44"/>
    </edge>
    <edge id=":1842342965_1" function="internal">
        <lane id=":1842342965_1_0" index="0" disallow="tram rail_urban rail rail_electric ship" speed="13.89" length="12.77" shape="2028.30,651.52 2040.17,647.05"/>
        <lane id=":1842342965_1_1" index="1" disallow="tram rail_urban rail rail_electric ship" speed="13.89" length="12.77" shape="2029.39,654.53 2041.42,650.00"/>
    </edge>
    <edge id=":1842343076_0" function="internal">
        <lane id=":1842343076_0_0" index="0" disallow="tram rail_urban rail rail_electric ship" speed="13.89" length="10.66" shape="2009.18,692.13 2009.24,695.18 2009.38,697.27 2009.75,699.33 2010.47,702.29"/>
        <lane id=":1842343076_0_1" index="1" disallow="tram rail_urban rail rail_electric ship" speed="13.89" length="10.66" shape="2005.98,692.18 2006.05,695.45 2006.20,697.69 2006.59,699.90 2007.37,703.08"/>
    </edge>
    <edge id=":1842988563_0" function="internal">
        <lane id=":1842988563_0_0" index="0" disallow="tram rail_urban rail rail_electric ship" speed="13.89" length="0.27" shape="2324.95,478.22 2324.86,477.89"/>
        <lane id=":1842988563_0_1" index="1" disallow="tram rail_urban rail rail_electric ship" speed="13.89" length="0.27" shape="2328.04,477.37 2327.97,477.10"/>
        <lane id=":1842988563_0_2" index="2" disallow="tram rail_urban rail rail_electric ship" speed="13.89" length="0.27" shape="2331.12,476.51 2331.07,476.32"/>
    </edge>
    <edge id=":1856003489_0" function="internal">
        <lane id=":1856003489_0_0" index="0" allow="bicycle pedestrian" speed="2.78" length="4.85" width="2.00" shape="2492.92,1027.74 2494.25,1028.29 2495.18,1028.63 2496.15,1028.80 2497.58,1028.86"/>
    </edge>
    <edge id=":1856003489_1" function="internal">
        <lane id=":1856003489_1_0" index="0" allow="bicycle pedestrian" speed="2.78" length="4.24" width="2.00" shape="2492.92,1027.74 2493.98,1028.36 2494.46,1029.11 2494.36,1030.00 2493.67,1031.02"/>
    </edge>
    <edge id=":1856003490_0" function="internal">
        <lane id=":1856003490_0_0" index="0" disallow="tram rail_urban rail rail_electric ship" speed="13.89" length="4.02" shape="2505.23,1027.83 2504.83,1031.86"/>
        <lane id=":1856003490_0_1" index="1" disallow="tram rail_urban rail rail_electric ship" speed="13.89" length="4.02" shape="2502.04,1027.55 2501.65,1031.53"/>
    </edge>
    <edge id=":1856003490_2" function="internal">
        <lane id=":1856003490_2_0" index="0" disallow="tram rail_urban rail rail_electric ship" speed="4.56" length="4.61" shape="2498.72,1028.86 2500.10,1029.04 2501.05,1029.54 2501.57,1030.37 2501.65,1031.53"/>
    </edge>
    <edge id=":1856003493_0" function="internal">
        <lane id=":1856003493_0_0" index="0" allow="bicycle pedestrian" speed="2.78" length="3.90" width="2.00" shape="2485.66,1037.28 2484.83,1037.89 2484.30,1038.64 2484.09,1039.53 2484.18,1040.56"/>
    </edge>
    <edge id=":1856003493_1" function="internal">
        <lane id=":1856003493_1_0" index="0" allow="bicycle pedestrian" speed="2.78" length="3.94" width="2.00" shape="2485.66,1037.28 2484.68,1037.69 2483.73,1037.85 2482.80,1037.75 2481.89,1037.39"/>
    </edge>
    <edge id=":1856003579_0" function="internal">
        <lane id=":1856003579_0_0" index="0" allow="bicycle pedestrian" speed="2.78" length="4.10" width="2.00" shape="2479.35,1121.10 2478.41,1121.76 2477.95,1122.54 2477.97,1123.44 2478.47,1124.47"/>
    </edge>
    <edge id=":1856003579_1" function="internal">
        <lane id=":1856003579_1_0" index="0" allow="bicycle pedestrian" speed="2.78" length="4.31" width="2.00" shape="2479.35,1121.10 2478.21,1121.56 2477.14,1121.75 2476.14,1121.66 2475.22,1121.31"/>
    </edge>
    <edge id=":1856003587_0" function="internal">
        <lane id=":1856003587_0_0" index="0" allow="bicycle pedestrian" speed="2.78" length="6.70" width="2.00" shape="2484.18,1128.75 2483.95,1130.73 2483.79,1132.09 2483.76,1133.45 2483.95,1135.42"/>
    </edge>
    <edge id=":1856003587_1" function="internal">
        <lane id=":1856003587_1_0" index="0" allow="bicycle pedestrian" speed="2.78" length="6.70" width="2.00" shape="2481.48,1129.26 2482.43,1131.01 2483.11,1132.22 2483.59,1133.48 2483.95,1135.42"/>
    </edge>
    <edge id=":2495222644_0" function="internal">
        <lane id=":2495222644_0_0" index="0" disallow="tram rail_urban rail rail_electric ship" speed="13.89" length="5.13" shape="2042.24,877.50 2042.20,882.65"/>
        <lane id=":2495222644_0_1" index="1" disallow="tram rail_urban rail rail_electric ship" speed="13.89" length="5.13" shape="2039.04,877.49 2039.00,882.60"/>
    </edge>
    <edge id=":2495222644_2" function="internal">
        <lane id=":2495222644_2_0" index="0" disallow="tram rail_urban rail rail_electric ship" speed="3.65" length="2.34" shape="2039.04,877.49 2038.24,878.69 2037.44,879.09"/>
    </edge>
    <edge id=":2495222644_8" function="internal">
        <lane id=":2495222644_8_0" index="0" disallow="tram rail_urban rail rail_electric ship" speed="3.65" length="2.34" shape="2037.44,879.09 2036.64,878.69 2035.84,877.49"/>
    </edge>
    <edge id=":2495222644_3" function="internal">
        <lane id=":2495222644_3_0" index="0" disallow="tram rail_urban rail rail_electric ship" speed="4.64" length="4.54" shape="2029.52,879.95 2030.89,879.82 2031.86,879.36 2032.45,878.59 2032.64,877.48"/>
    </edge>
    <edge id=":2495222644_4" function="internal">
        <lane id=":2495222644_4_0" index="0" disallow="tram rail_urban rail rail_electric ship" speed="6.82" length="10.36" shape="2029.52,879.95 2033.68,880.19 2036.65,880.71 2038.42,881.51 2039.00,882.60"/>
    </edge>
    <edge id=":2495222644_5" function="internal">
        <lane id=":2495222644_5_0" index="0" disallow="tram rail_urban rail rail_electric ship" speed="13.89" length="5.04" shape="2032.60,882.50 2032.64,877.48"/>
        <lane id=":2495222644_5_1" index="1" disallow="tram rail_urban rail rail_electric ship" speed="13.89" length="5.04" shape="2035.80,882.55 2035.84,877.49"/>
    </edge>
    <edge id=":2495222644_7" function="internal">
        <lane id=":2495222644_7_0" index="0" disallow="tram rail_urban rail rail_electric ship" speed="3.65" length="2.34" shape="2035.80,882.55 2036.62,881.36 2037.43,880.98"/>
    </edge>
    <edge id=":2495222644_9" function="internal">
        <lane id=":2495222644_9_0" index="0" disallow="tram rail_urban rail rail_electric ship" speed="3.65" length="2.34" shape="2037.43,880.98 2038.22,881.39 2039.00,882.60"/>
    </edge>
    <edge id=":2581124137_0" function="internal">
        <lane id=":2581124137_0_0" index="0" disallow="tram rail_urban rail rail_electric ship" speed="13.89" length="0.30" shape="2388.23,1245.86 2388.20,1245.56"/>
        <lane id=":2581124137_0_1" index="1" disallow="tram rail_urban rail rail_electric ship" speed="13.89" length="0.30" shape="2391.41,1245.52 2391.38,1245.23"/>
        <lane id=":2581124137_0_2" index="2" disallow="tram rail_urban rail rail_electric ship" speed="13.89" length="0.30" shape="2394.59,1245.19 2394.56,1244.89"/>
    </edge>
    <edge id=":2678905071_0" function="internal">
        <lane id=":2678905071_0_0" index="0" allow="delivery bicycle pedestrian" speed="5.56" length="9.80" shape="2030.94,712.34 2028.79,702.78"/>
    </edge>
    <edge id=":2678905071_1" function="internal">
        <lane id=":2678905071_1_0" index="0" allow="delivery bicycle pedestrian" speed="3.65" length="2.34" shape="2030.94,712.34 2031.46,710.99 2032.15,710.42"/>
    </edge>
    <edge id=":2678905071_4" function="internal">
        <lane id=":2678905071_4_0" index="0" allow="delivery bicycle pedestrian" speed="3.65" length="2.34" shape="2032.15,710.42 2033.02,710.64 2034.07,711.63"/>
    </edge>
    <edge id=":2678905071_2" function="internal">
        <lane id=":2678905071_2_0" index="0" allow="delivery bicycle pedestrian" speed="5.56" length="9.80" shape="2031.91,702.07 2034.07,711.63"/>
    </edge>
    <edge id=":2678905071_3" function="internal">
        <lane id=":2678905071_3_0" index="0" allow="delivery bicycle pedestrian" speed="3.65" length="2.34" shape="2031.91,702.07 2031.39,703.42 2030.70,703.99"/>
    </edge>
    <edge id=":2678905071_5" function="internal">
        <lane id=":2678905071_5_0" index="0" allow="delivery bicycle pedestrian" speed="3.65" length="2.34" shape="2030.70,703.99 2029.83,703.77 2028.79,702.78"/>
    </edge>
    <edge id=":2683341047_0" function="internal">
        <lane id=":2683341047_0_0" index="0" allow="delivery bicycle pedestrian" speed="3.65" length="4.67" shape="2251.61,617.71 2251.26,619.11 2250.64,619.75 2249.76,619.64 2248.60,618.78"/>
    </edge>
    <edge id=":2718894055_0" function="internal">
        <lane id=":2718894055_0_0" index="0" allow="tram" speed="13.89" length="7.07" shape="2377.28,745.03 2376.62,737.99"/>
    </edge>
    <edge id=":2718894055_1" function="internal">
        <lane id=":2718894055_1_0" index="0" disallow="tram rail_urban rail rail_electric ship" speed="13.89" length="4.71" shape="2373.40,742.57 2374.57,741.88 2375.37,741.41 2376.15,740.91 2377.25,740.12"/>
        <lane id=":2718894055_1_1" index="1" disallow="tram rail_urban rail rail_electric ship" speed="13.89" length="4.71" shape="2375.05,745.32 2376.29,744.58 2377.14,744.08 2377.96,743.54 2379.14,742.71"/>
    </edge>
    <edge id=":2718894059_0" function="internal">
        <lane id=":2718894059_0_0" index="0" allow="tram" speed="13.89" length="4.68" shape="2377.64,749.89 2377.29,745.23"/>
    </edge>
    <edge id=":2718894059_1" function="internal">
        <lane id=":2718894059_1_0" index="0" disallow="tram rail_urban rail rail_electric ship" speed="13.89" length="3.17" shape="2378.75,747.41 2375.70,746.56"/>
    </edge>
    <edge id=":2718894061_0" function="internal">
        <lane id=":2718894061_0_0" index="0" disallow="tram rail_urban rail rail_electric ship" speed="13.89" length="0.28" shape="2393.18,748.84 2392.90,748.83"/>
    </edge>
    <edge id=":2718894063_0" function="internal">
        <lane id=":2718894063_0_0" index="0" disallow="tram rail_urban rail rail_electric ship" speed="13.89" length="0.30" shape="2393.73,753.25 2393.43,753.30"/>
        <lane id=":2718894063_0_1" index="1" disallow="tram rail_urban rail rail_electric ship" speed="13.89" length="0.30" shape="2393.24,750.09 2392.94,750.13"/>
    </edge>
    <edge id=":2718894091_0" function="internal">
        <lane id=":2718894091_0_0" index="0" allow="bicycle pedestrian" speed="2.78" length="3.68" width="2.00" shape="2420.65,1021.66 2416.98,1021.96"/>
    </edge>
    <edge id=":289173537_0" function="internal">
        <lane id=":289173537_0_0" index="0" allow="bicycle pedestrian" speed="2.78" length="4.45" width="2.00" shape="2487.76,1120.07 2486.59,1119.46 2485.70,1119.50 2485.12,1120.18 2484.82,1121.50"/>
    </edge>
    <edge id=":289173537_1" function="internal">
        <lane id=":289173537_1_0" index="0" allow="bicycle pedestrian" speed="2.78" length="5.90" width="2.00" shape="2487.76,1120.07 2486.42,1119.35 2485.04,1119.05 2483.62,1119.17 2482.17,1119.70"/>
    </edge>
    <edge id=":289173537_2" function="internal">
        <lane id=":289173537_2_0" index="0" allow="bicycle pedestrian" speed="2.78" length="5.37" width="2.00" shape="2485.30,1116.15 2484.82,1121.50"/>
    </edge>
    <edge id=":289173537_3" function="internal">
        <lane id=":289173537_3_0" index="0" allow="bicycle pedestrian" speed="2.78" length="4.93" width="2.00" shape="2485.30,1116.15 2485.04,1117.15 2484.43,1118.07 2483.47,1118.92 2482.17,1119.70"/>
    </edge>
    <edge id=":289173539_0" function="internal">
        <lane id=":289173539_0_0" index="0" allow="bicycle pedestrian" speed="2.78" length="6.66" width="2.00" shape="2494.29,1162.94 2495.15,1164.71 2495.61,1165.98 2495.90,1167.31 2496.25,1169.25"/>
    </edge>
    <edge id=":2927228567_0" function="internal">
        <lane id=":2927228567_0_0" index="0" disallow="tram rail_urban rail rail_electric ship" speed="13.89" length="5.00" shape="2276.11,1136.17 2271.12,1136.56"/>
    </edge>
    <edge id=":2927228583_0" function="internal">
        <lane id=":2927228583_0_0" index="0" allow="delivery bicycle pedestrian" speed="3.65" length="4.67" shape="2190.01,1198.92 2188.74,1198.25 2188.25,1197.50 2188.57,1196.66 2189.68,1195.74"/>
    </edge>
    <edge id=":303488568_0" function="internal">
        <lane id=":303488568_0_0" index="0" allow="bicycle pedestrian" speed="2.78" length="4.94" width="2.00" shape="2065.47,817.70 2070.40,817.96"/>
    </edge>
    <edge id=":34090416_0" function="internal">
        <lane id=":34090416_0_0" index="0" disallow="tram rail_urban rail rail_electric ship" speed="13.89" length="8.00" shape="2425.75,748.31 2417.84,749.52"/>
        <lane id=":34090416_0_1" index="1" disallow="tram rail_urban rail rail_electric ship" speed="13.89" length="8.00" shape="2425.27,745.15 2417.36,746.36"/>
    </edge>
    <edge id=":34090416_2" function="internal">
        <lane id=":34090416_2_0" index="0" disallow="tram rail_urban rail rail_electric ship" speed="13.89" length="8.16" shape="2425.27,745.15 2422.94,745.75 2421.43,746.50 2419.90,747.20 2417.56,747.65"/>
    </edge>
    <edge id=":34212246_0" function="internal">
        <lane id=":34212246_0_0" index="0" disallow="tram rail_urban rail rail_electric ship" speed="13.89" length="8.41" shape="2365.21,724.34 2363.85,715.96"/>
        <lane id=":34212246_0_1" index="1" disallow="tram rail_urban rail rail_electric ship" speed="13.89" length="8.41" shape="2368.36,723.81 2367.02,715.51"/>
        <lane id=":34212246_0_2" index="2" disallow="tram rail_urban rail rail_electric ship" speed="13.89" length="8.41" shape="2371.52,723.28 2370.19,715.07"/>
    </edge>
    <edge id=":34212246_3" function="internal">
        <lane id=":34212246_3_0" index="0" disallow="tram rail_urban rail rail_electric ship" speed="3.78" length="2.58" shape="2369.06,717.38 2370.19,715.07"/>
    </edge>
    <edge id=":34212246_4" function="internal">
        <lane id=":34212246_4_0" index="0" disallow="tram rail_urban rail rail_electric ship" speed="6.37" length="5.66" shape="2362.03,720.99 2363.01,720.10 2363.64,718.96 2363.92,717.58 2363.85,715.96"/>
    </edge>
    <edge id=":34216005_0" function="internal">
        <lane id=":34216005_0_0" index="0" disallow="tram rail_urban rail rail_electric ship" speed="6.51" length="8.98" shape="2168.63,1143.92 2166.23,1144.43 2164.56,1145.58 2163.62,1147.39 2163.42,1149.84"/>
    </edge>
    <edge id=":34216005_1" function="internal">
        <lane id=":34216005_1_0" index="0" disallow="tram rail_urban rail rail_electric ship" speed="13.89" length="11.10" shape="2162.64,1138.77 2163.42,1149.84"/>
    </edge>
    <edge id=":34216062_0" function="internal">
        <lane id=":34216062_0_0" index="0" disallow="tram rail_urban rail rail_electric ship" speed="6.56" length="8.97" shape="2290.18,1140.62 2289.57,1138.23 2288.35,1136.59 2286.53,1135.69 2284.11,1135.54"/>
    </edge>
    <edge id=":34216062_1" function="internal">
        <lane id=":34216062_1_0" index="0" disallow="tram rail_urban rail rail_electric ship" speed="13.89" length="11.01" shape="2290.18,1140.62 2289.12,1129.66"/>
    </edge>
    <edge id=":34216062_2" function="internal">
        <lane id=":34216062_2_0" index="0" disallow="tram rail_urban rail rail_electric ship" speed="13.89" length="11.01" shape="2295.09,1134.76 2284.11,1135.54"/>
    </edge>
    <edge id=":34216062_3" function="internal">
        <lane id=":34216062_3_0" index="0" disallow="tram rail_urban rail rail_electric ship" speed="6.51" length="4.15" shape="2295.09,1134.76 2292.64,1134.57 2291.13,1133.81"/>
    </edge>
    <edge id=":34216062_4" function="internal">
        <lane id=":34216062_4_0" index="0" disallow="tram rail_urban rail rail_electric ship" speed="6.51" length="4.77" shape="2291.13,1133.81 2290.83,1133.66 2289.66,1132.02 2289.12,1129.66"/>
    </edge>
    <edge id=":34216063_0" function="internal">
        <lane id=":34216063_0_0" index="0" disallow="tram rail_urban rail rail_electric ship" speed="6.06" length="9.07" shape="2068.93,1134.52 2066.35,1134.43 2064.56,1135.22 2063.56,1136.90 2063.33,1139.47"/>
    </edge>
    <edge id=":34216063_1" function="internal">
        <lane id=":34216063_1_0" index="0" disallow="tram rail_urban rail rail_electric ship" speed="3.65" length="4.67" shape="2068.93,1134.52 2067.89,1133.52 2067.64,1132.66 2068.17,1131.95 2069.49,1131.37"/>
    </edge>
    <edge id=":34216063_2" function="internal">
        <lane id=":34216063_2_0" index="0" disallow="tram rail_urban rail rail_electric ship" speed="8.21" length="10.68" shape="2061.64,1125.15 2062.50,1127.41 2064.10,1129.20 2066.43,1130.52 2069.49,1131.37"/>
    </edge>
    <edge id=":34216063_3" function="internal">
        <lane id=":34216063_3_0" index="0" disallow="tram rail_urban rail rail_electric ship" speed="13.89" length="14.21" shape="2061.64,1125.15 2062.45,1129.36 2062.87,1132.26 2063.10,1135.19 2063.33,1139.47"/>
        <lane id=":34216063_3_1" index="1" disallow="tram rail_urban rail rail_electric ship" speed="13.89" length="14.21" shape="2058.50,1125.78 2059.28,1129.86 2059.69,1132.67 2059.91,1135.50 2060.14,1139.65"/>
    </edge>
    <edge id=":34360733_0" function="internal">
        <lane id=":34360733_0_0" index="0" disallow="tram rail_urban rail rail_electric ship" speed="3.65" length="4.67" shape="2086.45,1098.79 2085.39,1097.82 2085.11,1096.97 2085.63,1096.24 2086.93,1095.63"/>
    </edge>
    <edge id=":34360736_0" function="internal">
        <lane id=":34360736_0_0" index="0" disallow="tram rail_urban rail rail_electric ship" speed="13.89" length="11.19" shape="2286.01,1091.18 2285.13,1080.02"/>
    </edge>
    <edge id=":34360736_1" function="internal">
        <lane id=":34360736_1_0" index="0" disallow="tram rail_urban rail rail_electric ship" speed="6.51" length="9.03" shape="2279.98,1086.04 2282.40,1085.50 2284.06,1084.32 2284.97,1082.49 2285.13,1080.02"/>
    </edge>