<?xml version="1.0" encoding="UTF-8"?>

<!-- generated on 08/21/19 12:20:46 by Eclipse SUMO netconvert Version 1.2.0
<configuration xmlns:xsi="http://www.w3.org/2001/XMLSchema-instance" xsi:noNamespaceSchemaLocation="http://sumo.dlr.de/xsd/netconvertConfiguration.xsd">

    <input>
        <osm-files value="C:\Users\darkm\Desktop\dede"/>
    </input>

    <output>
        <output-file value="mapNetconvert.net.xml"/>
    </output>

    <projection>
        <proj.utm value="true"/>
    </projection>

    <processing>
        <geometry.remove value="true"/>
        <roundabouts.guess value="true"/>
    </processing>

    <junctions>
        <junctions.join value="true"/>
    </junctions>

</configuration>
-->

<net version="1.1" junctionCornerDetail="5" limitTurnSpeed="5.50" xmlns:xsi="http://www.w3.org/2001/XMLSchema-instance" xsi:noNamespaceSchemaLocation="http://sumo.dlr.de/xsd/net_file.xsd">

    <location netOffset="-474166.81,-5551988.15" convBoundary="0.00,0.00,860.56,624.03" origBoundary="8.638603,50.119597,8.650673,50.125205" projParameter="+proj=utm +zone=32 +ellps=WGS84 +datum=WGS84 +units=m +no_defs"/>

    <type id="highway.bridleway" priority="1" numLanes="1" speed="2.78" allow="pedestrian" oneway="1" width="2.00"/>
    <type id="highway.bus_guideway" priority="1" numLanes="1" speed="27.78" allow="bus" oneway="1"/>
    <type id="highway.cycleway" priority="1" numLanes="1" speed="8.33" allow="bicycle" oneway="0" width="1.00"/>
    <type id="highway.footway" priority="1" numLanes="1" speed="2.78" allow="pedestrian" oneway="1" width="2.00"/>
    <type id="highway.ford" priority="1" numLanes="1" speed="2.78" allow="army" oneway="0"/>
    <type id="highway.living_street" priority="2" numLanes="1" speed="2.78" disallow="tram rail_urban rail rail_electric ship" oneway="0"/>
    <type id="highway.motorway" priority="14" numLanes="2" speed="39.44" allow="private emergency authority army vip passenger hov taxi bus coach delivery truck trailer motorcycle evehicle custom1 custom2" oneway="1"/>
    <type id="highway.motorway_link" priority="9" numLanes="1" speed="22.22" allow="private emergency authority army vip passenger hov taxi bus coach delivery truck trailer motorcycle evehicle custom1 custom2" oneway="1"/>
    <type id="highway.path" priority="1" numLanes="1" speed="2.78" allow="bicycle pedestrian" oneway="1" width="2.00"/>
    <type id="highway.pedestrian" priority="1" numLanes="1" speed="2.78" allow="pedestrian" oneway="1" width="2.00"/>
    <type id="highway.primary" priority="12" numLanes="2" speed="27.78" disallow="tram rail_urban rail rail_electric ship" oneway="0"/>
    <type id="highway.primary_link" priority="7" numLanes="1" speed="22.22" disallow="tram rail_urban rail rail_electric ship" oneway="0"/>
    <type id="highway.raceway" priority="15" numLanes="2" speed="83.33" allow="vip" oneway="0"/>
    <type id="highway.residential" priority="3" numLanes="1" speed="13.89" disallow="tram rail_urban rail rail_electric ship" oneway="0"/>
    <type id="highway.secondary" priority="11" numLanes="2" speed="27.78" disallow="tram rail_urban rail rail_electric ship" oneway="0"/>
    <type id="highway.secondary_link" priority="6" numLanes="1" speed="22.22" disallow="tram rail_urban rail rail_electric ship" oneway="0"/>
    <type id="highway.service" priority="1" numLanes="1" speed="5.56" allow="delivery bicycle pedestrian" oneway="0"/>
    <type id="highway.stairs" priority="1" numLanes="1" speed="1.39" allow="pedestrian" oneway="1" width="2.00"/>
    <type id="highway.step" priority="1" numLanes="1" speed="1.39" allow="pedestrian" oneway="1" width="2.00"/>
    <type id="highway.steps" priority="1" numLanes="1" speed="1.39" allow="pedestrian" oneway="1" width="2.00"/>
    <type id="highway.tertiary" priority="10" numLanes="1" speed="22.22" disallow="tram rail_urban rail rail_electric ship" oneway="0"/>
    <type id="highway.tertiary_link" priority="5" numLanes="1" speed="22.22" disallow="tram rail_urban rail rail_electric ship" oneway="0"/>
    <type id="highway.track" priority="1" numLanes="1" speed="5.56" disallow="tram rail_urban rail rail_electric ship" oneway="0"/>
    <type id="highway.trunk" priority="13" numLanes="2" speed="27.78" disallow="tram rail_urban rail rail_electric bicycle pedestrian ship" oneway="0"/>
    <type id="highway.trunk_link" priority="8" numLanes="1" speed="22.22" disallow="tram rail_urban rail rail_electric bicycle pedestrian ship" oneway="0"/>
    <type id="highway.unclassified" priority="4" numLanes="1" speed="13.89" disallow="tram rail_urban rail rail_electric ship" oneway="0"/>
    <type id="highway.unsurfaced" priority="1" numLanes="1" speed="8.33" disallow="tram rail_urban rail rail_electric ship" oneway="0"/>
    <type id="railway.light_rail" priority="19" numLanes="1" speed="27.78" allow="rail_urban" oneway="1"/>
    <type id="railway.preserved" priority="16" numLanes="1" speed="27.78" allow="rail" oneway="1"/>
    <type id="railway.rail" priority="20" numLanes="1" speed="83.33" allow="rail rail_electric" oneway="1"/>
    <type id="railway.subway" priority="18" numLanes="1" speed="27.78" allow="rail_urban" oneway="1"/>
    <type id="railway.tram" priority="17" numLanes="1" speed="13.89" allow="tram" oneway="1"/>

    <edge id=":1033196300_0" function="internal">
        <lane id=":1033196300_0_0" index="0" disallow="tram rail_urban rail rail_electric ship" speed="3.65" length="4.67" shape="199.60,223.09 198.17,223.32 197.34,223.00 197.09,222.14 197.43,220.74"/>
    </edge>
    <edge id=":1125468559_0" function="internal">
        <lane id=":1125468559_0_0" index="0" allow="delivery bicycle pedestrian" speed="3.65" length="4.67" shape="468.01,122.92 469.43,122.63 470.28,122.91 470.56,123.76 470.28,125.17"/>
    </edge>
    <edge id=":1125468564_0" function="internal">
        <lane id=":1125468564_0_0" index="0" allow="delivery bicycle pedestrian" speed="5.56" length="7.72" shape="449.44,150.14 447.91,148.44 446.78,147.34 445.48,146.45 443.47,145.36"/>
    </edge>
    <edge id=":1125468564_1" function="internal">
        <lane id=":1125468564_1_0" index="0" allow="delivery bicycle pedestrian" speed="5.56" length="9.87" shape="449.44,150.14 447.95,147.91 447.49,145.70 448.07,143.53 449.67,141.38"/>
    </edge>
    <edge id=":1125468564_2" function="internal">
        <lane id=":1125468564_2_0" index="0" allow="delivery bicycle pedestrian" speed="3.65" length="4.67" shape="449.44,150.14 449.24,148.71 449.57,147.88 450.43,147.65 451.83,148.01"/>
    </edge>
    <edge id=":1125468564_3" function="internal">
        <lane id=":1125468564_3_0" index="0" allow="delivery bicycle pedestrian" speed="5.11" length="4.93" shape="451.94,143.63 451.14,144.71 450.85,145.79 451.08,146.89 451.83,148.01"/>
    </edge>
    <edge id=":1125468564_4" function="internal">
        <lane id=":1125468564_4_0" index="0" allow="delivery bicycle pedestrian" speed="5.56" length="9.32" shape="451.94,143.63 449.91,145.25 447.82,146.08 445.68,146.12 443.47,145.36"/>
    </edge>
    <edge id=":1125468564_5" function="internal">
        <lane id=":1125468564_5_0" index="0" allow="delivery bicycle pedestrian" speed="3.65" length="4.67" shape="451.94,143.63 450.53,143.92 449.68,143.64 449.39,142.79 449.67,141.38"/>
    </edge>
    <edge id=":1125468564_6" function="internal">
        <lane id=":1125468564_6_0" index="0" allow="delivery bicycle pedestrian" speed="5.56" length="5.24" shape="444.94,142.52 446.13,142.91 447.31,142.85 448.49,142.34 449.67,141.38"/>
    </edge>
    <edge id=":1125468564_7" function="internal">
        <lane id=":1125468564_7_0" index="0" allow="delivery bicycle pedestrian" speed="5.56" length="8.89" shape="444.94,142.52 447.26,143.77 448.75,144.79 450.06,146.05 451.83,148.01"/>
    </edge>
    <edge id=":1125468564_8" function="internal">
        <lane id=":1125468564_8_0" index="0" allow="delivery bicycle pedestrian" speed="3.65" length="4.67" shape="444.94,142.52 445.64,143.78 445.63,144.68 444.91,145.20 443.47,145.36"/>
    </edge>
    <edge id=":1125468565_0" function="internal">
        <lane id=":1125468565_0_0" index="0" allow="delivery bicycle pedestrian" speed="3.65" length="4.67" shape="424.61,157.20 423.19,157.40 422.35,157.07 422.12,156.21 422.48,154.81"/>
    </edge>
    <edge id=":132498080_0" function="internal">
        <lane id=":132498080_0_0" index="0" disallow="tram rail_urban rail rail_electric ship" speed="3.65" length="4.67" shape="531.46,-0.70 532.70,-1.43 533.60,-1.44 534.14,-0.73 534.33,0.70"/>
    </edge>
    <edge id=":16421101_0" function="internal">
        <lane id=":16421101_0_0" index="0" disallow="tram rail_urban rail rail_electric ship" speed="8.33" length="9.44" shape="527.72,436.87 527.34,434.10 526.99,432.21 526.48,430.36 525.60,427.70"/>
    </edge>
    <edge id=":16421101_1" function="internal">
        <lane id=":16421101_1_0" index="0" disallow="tram rail_urban rail rail_electric ship" speed="3.65" length="4.67" shape="527.72,436.87 528.36,435.58 529.10,435.08 529.95,435.37 530.90,436.45"/>
    </edge>
    <edge id=":16421101_2" function="internal">
        <lane id=":16421101_2_0" index="0" disallow="tram rail_urban rail rail_electric ship" speed="6.54" length="8.35" shape="535.14,430.27 533.04,431.12 531.63,432.43 530.92,434.21 530.90,436.45"/>
    </edge>
    <edge id=":16421101_3" function="internal">
        <lane id=":16421101_3_0" index="0" disallow="tram rail_urban rail rail_electric ship" speed="7.29" length="10.90" shape="535.14,430.27 531.54,430.86 528.75,430.63 526.77,429.58 525.60,427.70"/>
    </edge>
    <edge id=":16421101_4" function="internal">
        <lane id=":16421101_4_0" index="0" disallow="tram rail_urban rail rail_electric ship" speed="8.33" length="10.04" shape="528.64,426.69 529.57,429.52 530.11,431.49 530.49,433.50 530.90,436.45"/>
    </edge>
    <edge id=":16421101_5" function="internal">
        <lane id=":16421101_5_0" index="0" disallow="tram rail_urban rail rail_electric ship" speed="3.65" length="4.67" shape="528.64,426.69 528.26,428.09 527.63,428.72 526.74,428.59 525.60,427.70"/>
    </edge>
    <edge id=":16421111_0" function="internal">
        <lane id=":16421111_0_0" index="0" disallow="tram rail_urban rail rail_electric ship" speed="3.65" length="4.67" shape="531.29,542.44 530.42,543.59 529.60,543.94 528.82,543.49 528.10,542.24"/>
    </edge>
    <edge id=":16421603_0" function="internal">
        <lane id=":16421603_0_0" index="0" disallow="tram rail_urban rail rail_electric ship" speed="6.46" length="9.03" shape="390.38,394.37 388.97,392.33 387.25,391.24 385.22,391.11 382.88,391.93"/>
    </edge>
    <edge id=":16421603_1" function="internal">
        <lane id=":16421603_1_0" index="0" disallow="tram rail_urban rail rail_electric ship" speed="8.33" length="11.24" shape="392.92,386.87 382.88,391.93"/>
    </edge>
    <edge id=":16422040_0" function="internal">
        <lane id=":16422040_0_0" index="0" disallow="tram rail_urban rail rail_electric ship" speed="8.33" length="5.00" shape="368.50,399.43 364.06,401.74"/>
    </edge>
    <edge id=":16422115_0" function="internal">
        <lane id=":16422115_0_0" index="0" disallow="tram rail_urban rail rail_electric ship" speed="6.45" length="9.03" shape="335.85,207.02 333.90,205.47 331.94,204.94 329.97,205.41 327.98,206.90"/>
    </edge>
    <edge id=":16422115_1" function="internal">
        <lane id=":16422115_1_0" index="0" disallow="tram rail_urban rail rail_electric ship" speed="8.07" length="14.24" shape="335.85,207.02 333.58,203.82 332.84,200.66 333.65,197.55 335.98,194.48"/>
    </edge>
    <edge id=":16422115_2" function="internal">
        <lane id=":16422115_2_0" index="0" disallow="tram rail_urban rail rail_electric ship" speed="3.65" length="4.67" shape="335.85,207.02 335.61,205.60 335.91,204.76 336.77,204.50 338.18,204.83"/>
    </edge>
    <edge id=":16422115_3" function="internal">
        <lane id=":16422115_3_0" index="0" disallow="tram rail_urban rail rail_electric ship" speed="6.60" length="9.16" shape="338.22,196.76 336.73,198.73 336.23,200.73 336.71,202.76 338.18,204.83"/>
    </edge>
    <edge id=":16422115_4" function="internal">
        <lane id=":16422115_4_0" index="0" disallow="tram rail_urban rail rail_electric ship" speed="8.33" length="14.41" shape="338.22,196.76 327.98,206.90"/>
    </edge>
    <edge id=":16422115_5" function="internal">
        <lane id=":16422115_5_0" index="0" disallow="tram rail_urban rail rail_electric ship" speed="3.65" length="4.67" shape="338.22,196.76 336.81,197.03 335.96,196.74 335.69,195.89 335.98,194.48"/>
    </edge>
    <edge id=":16422115_6" function="internal">
        <lane id=":16422115_6_0" index="0" disallow="tram rail_urban rail rail_electric ship" speed="8.33" length="14.43" shape="325.72,204.63 335.98,194.48"/>
    </edge>
    <edge id=":16422115_7" function="internal">
        <lane id=":16422115_7_0" index="0" disallow="tram rail_urban rail rail_electric ship" speed="7.95" length="14.30" shape="325.72,204.63 328.87,202.28 332.00,201.53 335.10,202.38 338.18,204.83"/>
    </edge>
    <edge id=":16422115_8" function="internal">
        <lane id=":16422115_8_0" index="0" disallow="tram rail_urban rail rail_electric ship" speed="3.65" length="4.67" shape="325.72,204.63 327.13,204.35 327.98,204.63 328.26,205.48 327.98,206.90"/>
    </edge>
    <edge id=":1918017636_0" function="internal">
        <lane id=":1918017636_0_0" index="0" disallow="tram rail_urban rail rail_electric ship" speed="8.33" length="4.93" shape="346.29,410.97 341.97,413.34"/>
    </edge>
    <edge id=":1918023097_0" function="internal">
        <lane id=":1918023097_0_0" index="0" allow="delivery bicycle pedestrian" speed="3.65" length="4.67" shape="305.46,350.08 306.27,351.28 306.34,352.17 305.67,352.76 304.25,353.05"/>
    </edge>
    <edge id=":2472449900_0" function="internal">
        <lane id=":2472449900_0_0" index="0" allow="delivery bicycle pedestrian" speed="5.17" length="5.16" shape="411.80,498.13 410.73,497.29 409.62,497.01 408.45,497.26 407.23,498.07"/>
    </edge>
    <edge id=":2472449900_1" function="internal">
        <lane id=":2472449900_1_0" index="0" allow="delivery bicycle pedestrian" speed="5.56" length="9.40" shape="411.80,498.13 405.36,491.27"/>
    </edge>
    <edge id=":2472449900_2" function="internal">
        <lane id=":2472449900_2_0" index="0" allow="delivery bicycle pedestrian" speed="3.65" length="4.67" shape="411.80,498.13 411.56,496.71 411.87,495.87 412.72,495.61 414.13,495.94"/>
    </edge>
    <edge id=":2472449900_3" function="internal">
        <lane id=":2472449900_3_0" index="0" allow="delivery bicycle pedestrian" speed="5.56" length="9.40" shape="407.69,489.08 414.13,495.94"/>
    </edge>
    <edge id=":2472449900_4" function="internal">
        <lane id=":2472449900_4_0" index="0" allow="delivery bicycle pedestrian" speed="5.56" length="10.36" shape="407.69,489.08 409.33,491.42 409.80,493.70 409.10,495.91 407.23,498.07"/>
    </edge>
    <edge id=":2472449900_5" function="internal">
        <lane id=":2472449900_5_0" index="0" allow="delivery bicycle pedestrian" speed="3.65" length="4.67" shape="407.69,489.08 407.93,490.50 407.62,491.34 406.76,491.60 405.36,491.27"/>
    </edge>
    <edge id=":2472449900_6" function="internal">
        <lane id=":2472449900_6_0" index="0" allow="delivery bicycle pedestrian" speed="5.00" length="5.05" shape="405.13,495.65 406.04,494.60 406.39,493.52 406.16,492.41 405.36,491.27"/>
    </edge>
    <edge id=":2472449900_7" function="internal">
        <lane id=":2472449900_7_0" index="0" allow="delivery bicycle pedestrian" speed="5.56" length="10.17" shape="405.13,495.65 407.50,494.11 409.79,493.64 412.00,494.25 414.13,495.94"/>
    </edge>
    <edge id=":2472449900_8" function="internal">
        <lane id=":2472449900_8_0" index="0" allow="delivery bicycle pedestrian" speed="3.65" length="4.67" shape="405.13,495.65 406.57,495.47 407.39,495.81 407.61,496.68 407.23,498.07"/>
    </edge>
    <edge id=":2472449907_0" function="internal">
        <lane id=":2472449907_0_0" index="0" allow="delivery bicycle pedestrian" speed="3.65" length="4.67" shape="376.46,500.73 375.06,501.08 374.20,500.84 373.88,500.01 374.09,498.58"/>
    </edge>
    <edge id=":2472449909_0" function="internal">
        <lane id=":2472449909_0_0" index="0" allow="delivery bicycle pedestrian" speed="5.56" length="9.40" shape="425.06,503.22 418.06,509.49"/>
    </edge>
    <edge id=":2472449909_1" function="internal">
        <lane id=":2472449909_1_0" index="0" allow="delivery bicycle pedestrian" speed="5.56" length="10.17" shape="425.06,503.22 422.77,504.73 420.52,505.16 418.30,504.49 416.11,502.72"/>
    </edge>
    <edge id=":2472449909_2" function="internal">
        <lane id=":2472449909_2_0" index="0" allow="delivery bicycle pedestrian" speed="3.65" length="4.67" shape="425.06,503.22 423.63,503.42 422.80,503.09 422.57,502.23 422.93,500.83"/>
    </edge>
    <edge id=":2472449909_3" function="internal">
        <lane id=":2472449909_3_0" index="0" allow="delivery bicycle pedestrian" speed="5.12" length="5.09" shape="418.45,500.53 419.55,501.43 420.67,501.78 421.79,501.58 422.93,500.83"/>
    </edge>
    <edge id=":2472449909_4" function="internal">
        <lane id=":2472449909_4_0" index="0" allow="delivery bicycle pedestrian" speed="5.56" length="10.28" shape="418.45,500.53 420.07,502.85 420.54,505.11 419.88,507.32 418.06,509.49"/>
    </edge>
    <edge id=":2472449909_5" function="internal">
        <lane id=":2472449909_5_0" index="0" allow="delivery bicycle pedestrian" speed="3.65" length="4.67" shape="418.45,500.53 418.68,501.96 418.37,502.79 417.52,503.05 416.11,502.72"/>
    </edge>
    <edge id=":2472449909_6" function="internal">
        <lane id=":2472449909_6_0" index="0" allow="delivery bicycle pedestrian" speed="5.02" length="5.03" shape="415.92,507.11 416.81,506.05 417.14,504.96 416.91,503.86 416.11,502.72"/>
    </edge>
    <edge id=":2472449909_7" function="internal">
        <lane id=":2472449909_7_0" index="0" allow="delivery bicycle pedestrian" speed="5.56" length="9.40" shape="415.92,507.11 422.93,500.83"/>
    </edge>
    <edge id=":2472449909_8" function="internal">
        <lane id=":2472449909_8_0" index="0" allow="delivery bicycle pedestrian" speed="3.65" length="4.67" shape="415.92,507.11 417.35,506.90 418.18,507.23 418.42,508.09 418.06,509.49"/>
    </edge>
    <edge id=":2472449915_0" function="internal">
        <lane id=":2472449915_0_0" index="0" allow="delivery bicycle pedestrian" speed="3.65" length="4.67" shape="388.87,514.00 387.44,514.18 386.62,513.84 386.39,512.98 386.78,511.58"/>
    </edge>
    <edge id=":2517672409_0" function="internal">
        <lane id=":2517672409_0_0" index="0" disallow="tram rail_urban rail rail_electric ship" speed="8.33" length="4.99" shape="549.72,421.88 546.12,425.34"/>
    </edge>
    <edge id=":262309764_0" function="internal">
        <lane id=":262309764_0_0" index="0" disallow="tram rail_urban rail rail_electric ship" speed="8.33" length="10.91" shape="532.39,524.76 531.71,535.65"/>
    </edge>
    <edge id=":262309764_1" function="internal">
        <lane id=":262309764_1_0" index="0" disallow="tram rail_urban rail rail_electric ship" speed="7.19" length="11.56" shape="532.39,524.76 531.69,527.16 529.95,528.76 527.18,529.54 523.36,529.52"/>
    </edge>
    <edge id=":262309764_2" function="internal">
        <lane id=":262309764_2_0" index="0" disallow="tram rail_urban rail rail_electric ship" speed="3.65" length="4.67" shape="532.39,524.76 531.51,525.91 530.69,526.26 529.92,525.81 529.19,524.56"/>
    </edge>
    <edge id=":262309764_3" function="internal">
        <lane id=":262309764_3_0" index="0" disallow="tram rail_urban rail rail_electric ship" speed="6.54" length="8.89" shape="528.51,535.45 528.32,533.06 527.39,531.27 525.74,530.09 523.36,529.52"/>
    </edge>
    <edge id=":262309764_4" function="internal">
        <lane id=":262309764_4_0" index="0" disallow="tram rail_urban rail rail_electric ship" speed="8.33" length="10.91" shape="528.51,535.45 529.19,524.56"/>
    </edge>
    <edge id=":262309764_5" function="internal">
        <lane id=":262309764_5_0" index="0" disallow="tram rail_urban rail rail_electric ship" speed="3.65" length="4.67" shape="528.51,535.45 529.39,534.30 530.21,533.95 530.98,534.40 531.71,535.65"/>
    </edge>
    <edge id=":262310929_0" function="internal">
        <lane id=":262310929_0_0" index="0" disallow="tram rail_urban rail rail_electric ship" speed="6.66" length="9.22" shape="244.16,189.48 242.18,188.01 240.16,187.52 238.10,188.01 236.01,189.48"/>
    </edge>
    <edge id=":262310929_1" function="internal">
        <lane id=":262310929_1_0" index="0" disallow="tram rail_urban rail rail_electric ship" speed="8.33" length="14.39" shape="244.16,189.48 234.02,179.27"/>
    </edge>
    <edge id=":262310929_2" function="internal">
        <lane id=":262310929_2_0" index="0" disallow="tram rail_urban rail rail_electric ship" speed="3.65" length="4.67" shape="244.16,189.48 243.88,188.07 244.16,187.22 245.01,186.94 246.42,187.22"/>
    </edge>
    <edge id=":262310929_3" function="internal">
        <lane id=":262310929_3_0" index="0" disallow="tram rail_urban rail rail_electric ship" speed="8.33" length="14.38" shape="236.30,177.02 246.42,187.22"/>
    </edge>
    <edge id=":262310929_4" function="internal">
        <lane id=":262310929_4_0" index="0" disallow="tram rail_urban rail rail_electric ship" speed="7.94" length="14.32" shape="236.30,177.02 238.64,180.19 239.37,183.32 238.49,186.42 236.01,189.48"/>
    </edge>
    <edge id=":262310929_5" function="internal">
        <lane id=":262310929_5_0" index="0" disallow="tram rail_urban rail rail_electric ship" speed="3.65" length="4.67" shape="236.30,177.02 236.57,178.43 236.28,179.28 235.43,179.56 234.02,179.27"/>
    </edge>
    <edge id=":262310929_6" function="internal">
        <lane id=":262310929_6_0" index="0" disallow="tram rail_urban rail rail_electric ship" speed="6.44" length="9.03" shape="233.84,187.13 235.40,185.20 235.96,183.24 235.50,181.27 234.02,179.27"/>
    </edge>
    <edge id=":262310929_7" function="internal">
        <lane id=":262310929_7_0" index="0" disallow="tram rail_urban rail rail_electric ship" speed="8.13" length="14.23" shape="233.84,187.13 237.06,184.88 240.23,184.15 243.35,184.93 246.42,187.22"/>
    </edge>
    <edge id=":262310929_8" function="internal">
        <lane id=":262310929_8_0" index="0" disallow="tram rail_urban rail rail_electric ship" speed="3.65" length="4.67" shape="233.84,187.13 235.26,186.90 236.10,187.22 236.35,188.08 236.01,189.48"/>
    </edge>
    <edge id=":262310930_0" function="internal">
        <lane id=":262310930_0_0" index="0" disallow="tram rail_urban rail rail_electric ship" speed="8.33" length="5.01" shape="313.32,107.12 316.78,110.74"/>
    </edge>
    <edge id=":2731587896_0" function="internal">
        <lane id=":2731587896_0_0" index="0" disallow="tram rail_urban rail rail_electric ship" speed="8.33" length="5.00" shape="358.71,155.22 362.14,158.86"/>
    </edge>
    <edge id=":2731588316_0" function="internal">
        <lane id=":2731588316_0_0" index="0" disallow="tram rail_urban rail rail_electric ship" speed="8.33" length="5.00" shape="285.68,231.08 282.15,227.54"/>
    </edge>
    <edge id=":2731588316_1" function="internal">
        <lane id=":2731588316_1_0" index="0" disallow="tram rail_urban rail rail_electric ship" speed="3.65" length="2.34" shape="285.68,231.08 285.40,229.67 285.68,228.82"/>
    </edge>
    <edge id=":2731588316_4" function="internal">
        <lane id=":2731588316_4_0" index="0" disallow="tram rail_urban rail rail_electric ship" speed="3.65" length="2.34" shape="285.68,228.82 286.53,228.54 287.94,228.82"/>
    </edge>
    <edge id=":2731588316_2" function="internal">
        <lane id=":2731588316_2_0" index="0" disallow="tram rail_urban rail rail_electric ship" speed="8.33" length="5.00" shape="284.41,225.28 287.94,228.82"/>
    </edge>
    <edge id=":2731588316_3" function="internal">
        <lane id=":2731588316_3_0" index="0" disallow="tram rail_urban rail rail_electric ship" speed="3.65" length="2.34" shape="284.41,225.28 284.69,226.70 284.41,227.55"/>
    </edge>
    <edge id=":2731588316_5" function="internal">
        <lane id=":2731588316_5_0" index="0" disallow="tram rail_urban rail rail_electric ship" speed="3.65" length="2.34" shape="284.41,227.55 283.56,227.83 282.15,227.54"/>
    </edge>
    <edge id=":30387134_0" function="internal">
        <lane id=":30387134_0_0" index="0" disallow="tram rail_urban rail rail_electric ship" speed="6.20" length="9.05" shape="566.46,302.96 564.66,304.74 563.97,306.61 564.39,308.56 565.92,310.58"/>
    </edge>
    <edge id=":30387134_1" function="internal">
        <lane id=":30387134_1_0" index="0" disallow="tram rail_urban rail rail_electric ship" speed="8.33" length="11.02" shape="566.46,302.96 563.94,304.81 561.97,306.16 559.93,307.38 557.18,308.87"/>
    </edge>
    <edge id=":30628523_0" function="internal">
        <lane id=":30628523_0_0" index="0" disallow="tram rail_urban rail rail_electric ship" speed="6.42" length="9.04" shape="227.13,415.86 225.92,418.04 225.72,420.05 226.53,421.91 228.35,423.62"/>
    </edge>
    <edge id=":30628523_1" function="internal">
        <lane id=":30628523_1_0" index="0" disallow="tram rail_urban rail rail_electric ship" speed="3.65" length="4.67" shape="227.13,415.86 225.77,416.33 224.89,416.17 224.49,415.36 224.58,413.92"/>
    </edge>
    <edge id=":30628523_2" function="internal">
        <lane id=":30628523_2_0" index="0" disallow="tram rail_urban rail rail_electric ship" speed="6.56" length="9.15" shape="216.64,415.15 218.81,416.33 220.86,416.51 222.78,415.71 224.58,413.92"/>
    </edge>
    <edge id=":30628523_3" function="internal">
        <lane id=":30628523_3_0" index="0" disallow="tram rail_urban rail rail_electric ship" speed="8.33" length="14.45" shape="216.64,415.15 228.35,423.62"/>
    </edge>
    <edge id=":30628525_0" function="internal">
        <lane id=":30628525_0_0" index="0" disallow="tram rail_urban rail rail_electric ship" speed="5.58" length="4.59" shape="285.49,345.43 284.32,345.12 283.24,345.17 282.23,345.58 281.30,346.35"/>
    </edge>
    <edge id=":30628525_1" function="internal">
        <lane id=":30628525_1_0" index="0" allow="delivery bicycle pedestrian" speed="5.45" length="11.59" shape="285.49,345.43 280.94,343.37 278.96,341.94 279.55,341.14 282.70,340.95"/>
    </edge>
    <edge id=":30628525_2" function="internal">
        <lane id=":30628525_2_0" index="0" allow="delivery bicycle pedestrian" speed="3.65" length="4.67" shape="285.49,345.43 284.68,344.24 284.61,343.34 285.28,342.75 286.69,342.46"/>
    </edge>
    <edge id=":30628525_3" function="internal">
        <lane id=":30628525_3_0" index="0" allow="delivery bicycle pedestrian" speed="4.63" length="7.82" shape="282.61,344.15 286.20,344.14 288.07,343.86 288.23,343.30 286.69,342.46"/>
    </edge>
    <edge id=":30628525_4" function="internal">
        <lane id=":30628525_4_0" index="0" disallow="tram rail_urban rail rail_electric ship" speed="5.46" length="2.71" shape="282.61,344.15 282.08,344.38 281.84,344.97 281.65,345.70 281.30,346.35"/>
    </edge>
    <edge id=":30628525_5" function="internal">
        <lane id=":30628525_5_0" index="0" allow="delivery bicycle pedestrian" speed="3.65" length="4.67" shape="282.61,344.15 281.44,343.32 281.06,342.51 281.48,341.72 282.70,340.95"/>
    </edge>
    <edge id=":30628525_6" function="internal">
        <lane id=":30628525_6_0" index="0" allow="delivery bicycle pedestrian" speed="7.16" length="5.00" shape="278.96,344.17 279.69,343.35 280.71,342.28 281.79,341.34 282.70,340.95"/>
    </edge>
    <edge id=":30628525_7" function="internal">
        <lane id=":30628525_7_0" index="0" allow="delivery bicycle pedestrian" speed="7.33" length="8.47" shape="278.96,344.17 280.67,342.75 282.53,341.99 284.54,341.89 286.69,342.46"/>
    </edge>
    <edge id=":30628525_8" function="internal">
        <lane id=":30628525_8_0" index="0" disallow="tram rail_urban rail rail_electric ship" speed="3.65" length="4.67" shape="278.96,344.17 280.37,343.84 281.22,344.09 281.54,344.93 281.30,346.35"/>
    </edge>
    <edge id=":30628526_0" function="internal">
        <lane id=":30628526_0_0" index="0" disallow="tram rail_urban rail rail_electric ship" speed="6.58" length="8.11" shape="274.38,448.73 272.66,450.01 271.66,451.59 271.38,453.46 271.83,455.62"/>
    </edge>
    <edge id=":30628526_1" function="internal">
        <lane id=":30628526_1_0" index="0" disallow="tram rail_urban rail rail_electric ship" speed="8.33" length="9.61" shape="274.38,448.73 271.87,450.08 270.10,450.90 268.24,451.53 265.50,452.29"/>
    </edge>
    <edge id=":30628538_0" function="internal">
        <lane id=":30628538_0_0" index="0" disallow="tram rail_urban rail rail_electric ship" speed="8.33" length="11.14" shape="285.42,481.45 293.46,489.15"/>
    </edge>
    <edge id=":30628538_1" function="internal">
        <lane id=":30628538_1_0" index="0" disallow="tram rail_urban rail rail_electric ship" speed="6.50" length="9.03" shape="285.55,489.48 287.46,487.91 289.42,487.34 291.42,487.75 293.46,489.15"/>
    </edge>
    <edge id=":30676879_0" function="internal">
        <lane id=":30676879_0_0" index="0" disallow="tram rail_urban rail rail_electric ship" speed="8.33" length="11.25" shape="611.51,355.65 619.39,363.69"/>
    </edge>
    <edge id=":30676879_1" function="internal">