<?xml version="1.0" encoding="UTF-8"?>

<!-- generated on 07/12/19 12:15:57 by Eclipse SUMO netconvert Version 1.1.0
<configuration xmlns:xsi="http://www.w3.org/2001/XMLSchema-instance" xsi:noNamespaceSchemaLocation="http://sumo.dlr.de/xsd/netconvertConfiguration.xsd">

    <input>
        <osm-files value="C:\Users\Neblis\Desktop\OSMap.osm"/>
    </input>

    <output>
        <output-file value="mapNetconvert.net.xml"/>
    </output>

    <projection>
        <proj.utm value="true"/>
    </projection>

</configuration>
-->

<net version="1.1" junctionCornerDetail="5" limitTurnSpeed="5.50" xmlns:xsi="http://www.w3.org/2001/XMLSchema-instance" xsi:noNamespaceSchemaLocation="http://sumo.dlr.de/xsd/net_file.xsd">

    <location netOffset="-660709.07,-4466952.53" convBoundary="0.00,0.00,715.18,812.42" origBoundary="-1.107958,40.337619,-1.099462,40.344915" projParameter="+proj=utm +zone=30 +ellps=WGS84 +datum=WGS84 +units=m +no_defs"/>

    <type id="highway.bridleway" priority="1" numLanes="1" speed="2.78" allow="pedestrian" oneway="1" width="2.00"/>
    <type id="highway.bus_guideway" priority="1" numLanes="1" speed="27.78" allow="bus" oneway="1"/>
    <type id="highway.cycleway" priority="1" numLanes="1" speed="8.33" allow="bicycle" oneway="0" width="1.00"/>
    <type id="highway.footway" priority="1" numLanes="1" speed="2.78" allow="pedestrian" oneway="1" width="2.00"/>
    <type id="highway.ford" priority="1" numLanes="1" speed="2.78" allow="army" oneway="0"/>
    <type id="highway.living_street" priority="3" numLanes="1" speed="2.78" disallow="tram rail_urban rail rail_electric ship" oneway="0"/>
    <type id="highway.motorway" priority="13" numLanes="2" speed="44.44" allow="private emergency authority army vip passenger hov taxi bus coach delivery truck trailer motorcycle evehicle custom1 custom2" oneway="1"/>
    <type id="highway.motorway_link" priority="12" numLanes="1" speed="22.22" allow="private emergency authority army vip passenger hov taxi bus coach delivery truck trailer motorcycle evehicle custom1 custom2" oneway="1"/>
    <type id="highway.path" priority="1" numLanes="1" speed="2.78" allow="bicycle pedestrian" oneway="1" width="2.00"/>
    <type id="highway.pedestrian" priority="1" numLanes="1" speed="2.78" allow="pedestrian" oneway="1" width="2.00"/>
    <type id="highway.primary" priority="9" numLanes="2" speed="27.78" disallow="tram rail_urban rail rail_electric ship" oneway="0"/>
    <type id="highway.primary_link" priority="8" numLanes="1" speed="22.22" disallow="tram rail_urban rail rail_electric ship" oneway="0"/>
    <type id="highway.raceway" priority="14" numLanes="2" speed="83.33" allow="vip" oneway="0"/>
    <type id="highway.residential" priority="4" numLanes="1" speed="13.89" disallow="tram rail_urban rail rail_electric ship" oneway="0"/>
    <type id="highway.secondary" priority="7" numLanes="2" speed="27.78" disallow="tram rail_urban rail rail_electric ship" oneway="0"/>
    <type id="highway.secondary_link" priority="6" numLanes="1" speed="22.22" disallow="tram rail_urban rail rail_electric ship" oneway="0"/>
    <type id="highway.service" priority="2" numLanes="1" speed="5.56" allow="delivery bicycle pedestrian" oneway="0"/>
    <type id="highway.stairs" priority="1" numLanes="1" speed="1.39" allow="pedestrian" oneway="1" width="2.00"/>
    <type id="highway.step" priority="1" numLanes="1" speed="1.39" allow="pedestrian" oneway="1" width="2.00"/>
    <type id="highway.steps" priority="1" numLanes="1" speed="1.39" allow="pedestrian" oneway="1" width="2.00"/>
    <type id="highway.tertiary" priority="6" numLanes="1" speed="22.22" disallow="tram rail_urban rail rail_electric ship" oneway="0"/>
    <type id="highway.tertiary_link" priority="5" numLanes="1" speed="22.22" disallow="tram rail_urban rail rail_electric ship" oneway="0"/>
    <type id="highway.track" priority="1" numLanes="1" speed="5.56" disallow="tram rail_urban rail rail_electric ship" oneway="0"/>
    <type id="highway.trunk" priority="11" numLanes="2" speed="27.78" disallow="tram rail_urban rail rail_electric bicycle pedestrian ship" oneway="0"/>
    <type id="highway.trunk_link" priority="10" numLanes="1" speed="22.22" disallow="tram rail_urban rail rail_electric bicycle pedestrian ship" oneway="0"/>
    <type id="highway.unclassified" priority="5" numLanes="1" speed="13.89" disallow="tram rail_urban rail rail_electric ship" oneway="0"/>
    <type id="highway.unsurfaced" priority="1" numLanes="1" speed="8.33" disallow="tram rail_urban rail rail_electric ship" oneway="0"/>
    <type id="railway.light_rail" priority="15" numLanes="1" speed="27.78" allow="rail_urban" oneway="1"/>
    <type id="railway.preserved" priority="15" numLanes="1" speed="27.78" allow="rail" oneway="1"/>
    <type id="railway.rail" priority="15" numLanes="1" speed="83.33" allow="rail rail_electric" oneway="1"/>
    <type id="railway.subway" priority="15" numLanes="1" speed="27.78" allow="rail_urban" oneway="1"/>
    <type id="railway.tram" priority="15" numLanes="1" speed="13.89" allow="tram" oneway="1"/>

    <edge id=":1576994058_0" function="internal">
        <lane id=":1576994058_0_0" index="0" disallow="tram rail_urban rail rail_electric ship" speed="13.89" length="7.93" shape="178.41,100.02 170.60,101.43"/>
    </edge>
    <edge id=":1576994058_1" function="internal">
        <lane id=":1576994058_1_0" index="0" disallow="tram rail_urban rail rail_electric ship" speed="6.03" length="5.83" shape="178.41,100.02 174.40,100.31 172.83,99.40"/>
    </edge>
    <edge id=":1576994058_2" function="internal">
        <lane id=":1576994058_2_0" index="0" disallow="tram rail_urban rail rail_electric ship" speed="3.65" length="2.34" shape="178.41,100.02 177.08,99.45 176.55,98.73"/>
    </edge>
    <edge id=":1576994058_6" function="internal">
        <lane id=":1576994058_6_0" index="0" disallow="tram rail_urban rail rail_electric ship" speed="6.03" length="7.11" shape="172.83,99.40 172.65,99.30 173.15,96.99 175.90,93.38"/>
    </edge>
    <edge id=":1576994058_7" function="internal">
        <lane id=":1576994058_7_0" index="0" disallow="tram rail_urban rail rail_electric ship" speed="3.65" length="2.34" shape="176.55,98.73 176.80,97.87 177.83,96.87"/>
    </edge>
    <edge id=":1576994058_3" function="internal">
        <lane id=":1576994058_3_0" index="0" disallow="tram rail_urban rail rail_electric ship" speed="11.56" length="8.02" shape="169.87,98.31 172.05,97.57 173.32,96.59 174.38,95.24 175.90,93.38"/>
    </edge>
    <edge id=":1576994058_4" function="internal">
        <lane id=":1576994058_4_0" index="0" disallow="tram rail_urban rail rail_electric ship" speed="13.89" length="8.09" shape="169.87,98.31 177.83,96.87"/>
    </edge>
    <edge id=":1576994058_5" function="internal">
        <lane id=":1576994058_5_0" index="0" disallow="tram rail_urban rail rail_electric ship" speed="3.65" length="2.34" shape="169.87,98.31 171.23,98.82 171.80,99.51"/>
    </edge>
    <edge id=":1576994058_8" function="internal">
        <lane id=":1576994058_8_0" index="0" disallow="tram rail_urban rail rail_electric ship" speed="3.65" length="2.34" shape="171.80,99.51 171.59,100.38 170.60,101.43"/>
    </edge>
    <edge id=":1577331793_0" function="internal">
        <lane id=":1577331793_0_0" index="0" disallow="tram rail_urban rail rail_electric ship" speed="3.65" length="4.67" shape="559.98,504.20 560.85,505.35 560.97,506.24 560.32,506.86 558.93,507.22"/>
    </edge>
    <edge id=":2311379300_0" function="internal">
        <lane id=":2311379300_0_0" index="0" disallow="tram rail_urban rail rail_electric ship" speed="13.89" length="4.80" shape="225.01,91.59 220.27,92.37"/>
    </edge>
    <edge id=":2311379300_1" function="internal">
        <lane id=":2311379300_1_0" index="0" disallow="tram rail_urban rail rail_electric ship" speed="3.65" length="2.34" shape="225.01,91.59 223.71,90.96 223.20,90.23"/>
    </edge>
    <edge id=":2311379300_4" function="internal">
        <lane id=":2311379300_4_0" index="0" disallow="tram rail_urban rail rail_electric ship" speed="3.65" length="2.34" shape="223.20,90.23 223.49,89.38 224.56,88.42"/>
    </edge>
    <edge id=":2311379300_2" function="internal">
        <lane id=":2311379300_2_0" index="0" disallow="tram rail_urban rail rail_electric ship" speed="13.89" length="4.94" shape="219.69,89.22 224.56,88.42"/>
    </edge>
    <edge id=":2311379300_3" function="internal">
        <lane id=":2311379300_3_0" index="0" disallow="tram rail_urban rail rail_electric ship" speed="3.65" length="2.34" shape="219.69,89.22 221.02,89.79 221.55,90.50"/>
    </edge>
    <edge id=":2311379300_5" function="internal">
        <lane id=":2311379300_5_0" index="0" disallow="tram rail_urban rail rail_electric ship" speed="3.65" length="2.34" shape="221.55,90.50 221.30,91.36 220.27,92.37"/>
    </edge>
    <edge id=":2311379306_0" function="internal">
        <lane id=":2311379306_0_0" index="0" disallow="tram rail_urban rail rail_electric ship" speed="19.69" length="1.70" shape="205.15,273.92 204.88,273.50 204.64,273.25 204.36,273.03 203.98,272.70"/>
    </edge>
    <edge id=":2311379306_1" function="internal">
        <lane id=":2311379306_1_0" index="0" disallow="tram rail_urban rail rail_electric ship" speed="27.78" length="3.65" shape="205.15,273.92 206.26,270.44"/>
    </edge>
    <edge id=":2311379306_2" function="internal">
        <lane id=":2311379306_2_0" index="0" disallow="tram rail_urban rail rail_electric ship" speed="27.78" length="2.23" shape="205.15,273.92 204.35,272.34"/>
        <lane id=":2311379306_2_1" index="1" disallow="tram rail_urban rail rail_electric ship" speed="27.78" length="2.23" shape="207.94,272.36 206.75,269.96"/>
    </edge>
    <edge id=":2370547876_0" function="internal">
        <lane id=":2370547876_0_0" index="0" disallow="tram rail_urban rail rail_electric ship" speed="3.65" length="4.67" shape="525.45,51.99 526.89,51.87 527.70,52.24 527.89,53.12 527.45,54.49"/>
    </edge>
    <edge id=":2370547882_0" function="internal">
        <lane id=":2370547882_0_0" index="0" disallow="tram rail_urban rail rail_electric ship" speed="9.00" length="4.34" shape="400.83,133.24 400.07,132.25 399.36,131.74 398.50,131.41 397.30,130.91"/>
    </edge>
    <edge id=":2370547882_1" function="internal">
        <lane id=":2370547882_1_0" index="0" disallow="tram rail_urban rail rail_electric ship" speed="6.34" length="4.13" shape="400.83,133.24 400.64,132.64 400.67,131.78 400.91,130.64 401.35,129.24"/>
    </edge>
    <edge id=":2370547887_0" function="internal">
        <lane id=":2370547887_0_0" index="0" disallow="tram rail_urban rail rail_electric ship" speed="8.81" length="8.52" shape="392.54,174.83 390.60,174.00 388.59,173.66 386.49,173.81 384.32,174.46"/>
    </edge>
    <edge id=":2370547887_1" function="internal">
        <lane id=":2370547887_1_0" index="0" disallow="tram rail_urban rail rail_electric ship" speed="13.89" length="11.95" shape="392.54,174.83 389.62,173.37 387.07,172.51 384.41,172.01 381.14,171.61"/>
    </edge>
    <edge id=":2370547887_2" function="internal">
        <lane id=":2370547887_2_0" index="0" disallow="tram rail_urban rail rail_electric ship" speed="13.89" length="3.35" shape="392.54,174.83 389.81,172.87"/>
    </edge>
    <edge id=":2370547887_3" function="internal">
        <lane id=":2370547887_3_0" index="0" disallow="tram rail_urban rail rail_electric ship" speed="3.65" length="2.23" shape="392.54,174.83 391.89,173.54 391.93,172.76"/>
    </edge>
    <edge id=":2370547887_16" function="internal">
        <lane id=":2370547887_16_0" index="0" disallow="tram rail_urban rail rail_electric ship" speed="13.89" length="11.58" shape="389.81,172.87 389.53,172.67 386.95,170.00 384.70,167.00 382.68,163.83"/>
    </edge>
    <edge id=":2370547887_17" function="internal">
        <lane id=":2370547887_17_0" index="0" disallow="tram rail_urban rail rail_electric ship" speed="3.65" length="2.45" shape="391.93,172.76 391.94,172.65 392.68,172.15 394.12,172.05"/>
    </edge>
    <edge id=":2370547887_4" function="internal">
        <lane id=":2370547887_4_0" index="0" disallow="tram rail_urban rail rail_electric ship" speed="13.89" length="14.34" shape="384.88,161.29 386.81,164.43 388.85,167.35 391.21,169.93 394.12,172.05"/>
    </edge>
    <edge id=":2370547887_5" function="internal">
        <lane id=":2370547887_5_0" index="0" disallow="tram rail_urban rail rail_electric ship" speed="7.84" length="15.29" shape="384.88,161.29 387.22,166.01 387.91,169.78 386.94,172.59 384.32,174.46"/>
    </edge>
    <edge id=":2370547887_6" function="internal">
        <lane id=":2370547887_6_0" index="0" disallow="tram rail_urban rail rail_electric ship" speed="6.99" length="15.93" shape="384.88,161.29 387.29,166.28 387.47,169.66 385.42,171.44 381.14,171.61"/>
    </edge>
    <edge id=":2370547887_7" function="internal">
        <lane id=":2370547887_7_0" index="0" disallow="tram rail_urban rail rail_electric ship" speed="3.71" length="4.90" shape="384.88,161.29 385.28,162.75 385.04,163.66 384.18,164.02 382.68,163.83"/>
    </edge>
    <edge id=":2370547887_8" function="internal">
        <lane id=":2370547887_8_0" index="0" disallow="tram rail_urban rail rail_electric ship" speed="4.83" length="6.78" shape="381.46,168.43 383.16,168.33 383.93,167.53 383.77,166.03 382.68,163.83"/>
    </edge>
    <edge id=":2370547887_9" function="internal">
        <lane id=":2370547887_9_0" index="0" disallow="tram rail_urban rail rail_electric ship" speed="13.89" length="13.27" shape="381.46,168.43 384.92,168.89 388.02,169.53 391.01,170.52 394.12,172.05"/>
    </edge>
    <edge id=":2370547887_10" function="internal">
        <lane id=":2370547887_10_0" index="0" disallow="tram rail_urban rail rail_electric ship" speed="6.14" length="2.73" shape="381.46,168.43 384.14,168.92"/>
    </edge>
    <edge id=":2370547887_11" function="internal">
        <lane id=":2370547887_11_0" index="0" disallow="tram rail_urban rail rail_electric ship" speed="3.65" length="2.34" shape="381.46,168.43 382.57,169.35 382.89,170.18"/>
    </edge>
    <edge id=":2370547887_18" function="internal">
        <lane id=":2370547887_18_0" index="0" disallow="tram rail_urban rail rail_electric ship" speed="6.14" length="11.66" shape="384.14,168.92 386.82,169.41 389.09,170.74 388.25,172.42 384.32,174.46"/>
    </edge>
    <edge id=":2370547887_19" function="internal">
        <lane id=":2370547887_19_0" index="0" disallow="tram rail_urban rail rail_electric ship" speed="3.65" length="2.34" shape="382.89,170.18 382.42,170.94 381.14,171.61"/>
    </edge>
    <edge id=":2370547887_12" function="internal">
        <lane id=":2370547887_12_0" index="0" disallow="tram rail_urban rail rail_electric ship" speed="3.18" length="2.46" shape="383.12,171.49 383.34,171.37 382.85,171.46 382.00,171.59 381.14,171.61"/>
    </edge>
    <edge id=":2370547887_13" function="internal">
        <lane id=":2370547887_13_0" index="0" disallow="tram rail_urban rail rail_electric ship" speed="6.08" length="8.73" shape="383.12,171.49 384.37,170.50 384.71,168.89 384.14,166.67 382.68,163.83"/>
    </edge>
    <edge id=":2370547887_14" function="internal">
        <lane id=":2370547887_14_0" index="0" disallow="tram rail_urban rail rail_electric ship" speed="10.12" length="11.40" shape="383.12,171.49 386.01,170.64 388.80,170.45 391.51,170.92 394.12,172.05"/>
    </edge>
    <edge id=":2370547887_15" function="internal">
        <lane id=":2370547887_15_0" index="0" disallow="tram rail_urban rail rail_electric ship" speed="3.65" length="4.67" shape="383.12,171.49 384.53,171.79 385.20,172.38 385.13,173.27 384.32,174.46"/>
    </edge>
    <edge id=":2370547897_0" function="internal">
        <lane id=":2370547897_0_0" index="0" disallow="tram rail_urban rail rail_electric ship" speed="20.83" length="3.33" shape="202.96,228.62 203.04,229.61 203.13,230.28 203.28,230.94 203.56,231.89"/>
    </edge>
    <edge id=":2370547897_1" function="internal">
        <lane id=":2370547897_1_0" index="0" disallow="tram rail_urban rail rail_electric ship" speed="20.83" length="4.01" shape="199.77,228.87 199.86,230.05 199.97,230.86 200.16,231.65 200.49,232.79"/>
    </edge>
    <edge id=":2370547897_2" function="internal">
        <lane id=":2370547897_2_0" index="0" disallow="tram rail_urban rail rail_electric ship" speed="20.83" length="4.08" shape="199.77,228.87 202.88,232.57"/>
        <lane id=":2370547897_2_1" index="1" disallow="tram rail_urban rail rail_electric ship" speed="20.83" length="4.08" shape="199.77,228.87 199.84,229.85 199.85,230.53 199.81,231.21 199.70,232.19"/>
    </edge>
    <edge id=":2370547903_0" function="internal">
        <lane id=":2370547903_0_0" index="0" disallow="tram rail_urban rail rail_electric ship" speed="12.90" length="7.44" shape="202.33,236.66 201.86,238.81 201.68,240.33 201.85,241.84 202.42,243.95"/>
    </edge>
    <edge id=":2370547903_1" function="internal">
        <lane id=":2370547903_1_0" index="0" disallow="tram rail_urban rail rail_electric ship" speed="14.98" length="10.10" shape="199.21,235.97 198.62,238.89 198.49,240.95 198.83,243.00 199.66,245.86"/>
    </edge>
    <edge id=":2370547903_2" function="internal">
        <lane id=":2370547903_2_0" index="0" disallow="tram rail_urban rail rail_electric ship" speed="7.85" length="10.39" shape="194.75,238.59 197.53,239.03 199.73,240.08 201.37,241.72 202.42,243.95"/>
        <lane id=":2370547903_2_1" index="1" disallow="tram rail_urban rail rail_electric ship" speed="5.02" length="10.39" shape="189.45,249.14 199.66,245.86"/>
    </edge>
    <edge id=":2370547910_0" function="internal">
        <lane id=":2370547910_0_0" index="0" disallow="tram rail_urban rail rail_electric ship" speed="11.95" length="7.48" shape="202.98,247.94 202.98,250.14 203.23,251.64 203.85,253.06 204.94,254.98"/>
    </edge>
    <edge id=":2370547910_1" function="internal">
        <lane id=":2370547910_1_0" index="0" disallow="tram rail_urban rail rail_electric ship" speed="13.09" length="9.01" shape="202.98,247.94 202.49,250.59 201.71,252.48 201.36,254.26 202.18,256.58"/>
    </edge>
    <edge id=":2370547910_2" function="internal">
        <lane id=":2370547910_2_0" index="0" disallow="tram rail_urban rail rail_electric ship" speed="8.42" length="7.02" shape="202.98,247.94 202.68,249.75 201.89,251.44 200.61,253.02 198.84,254.49"/>
        <lane id=":2370547910_2_1" index="1" disallow="tram rail_urban rail rail_electric ship" speed="7.36" length="7.02" shape="199.82,246.81 199.60,248.31 199.06,249.65 198.19,250.84 197.00,251.87"/>
    </edge>
    <edge id=":2370547914_0" function="internal">
        <lane id=":2370547914_0_0" index="0" disallow="tram rail_urban rail rail_electric ship" speed="8.91" length="5.81" shape="196.54,258.28 195.54,256.93 194.62,256.20 193.48,255.74 191.83,255.23"/>
    </edge>
    <edge id=":2370547914_1" function="internal">
        <lane id=":2370547914_1_0" index="0" disallow="tram rail_urban rail rail_electric ship" speed="23.21" length="8.90" shape="199.24,256.56 197.58,254.64 195.98,253.82 194.16,253.19 191.87,251.86"/>
    </edge>
    <edge id=":2370547914_2" function="internal">
        <lane id=":2370547914_2_0" index="0" disallow="tram rail_urban rail rail_electric ship" speed="9.73" length="5.67" shape="197.84,255.00 196.10,255.57 194.84,255.82 193.57,255.73 191.83,255.23"/>
        <lane id=":2370547914_2_1" index="1" disallow="tram rail_urban rail rail_electric ship" speed="6.64" length="5.67" shape="196.82,251.96 195.26,252.38 193.92,252.50 192.79,252.33 191.87,251.86"/>
    </edge>
    <edge id=":2370547920_0" function="internal">
        <lane id=":2370547920_0_0" index="0" disallow="tram rail_urban rail rail_electric ship" speed="27.78" length="2.11" shape="210.89,271.49 210.94,273.91"/>
        <lane id=":2370547920_0_1" index="1" disallow="tram rail_urban rail rail_electric ship" speed="27.78" length="2.11" shape="207.70,272.29 207.75,274.09"/>
    </edge>
    <edge id=":2370547920_2" function="internal">
        <lane id=":2370547920_2_0" index="0" disallow="tram rail_urban rail rail_electric ship" speed="27.78" length="2.07" shape="210.52,271.59 210.70,272.27 210.82,272.74 210.89,273.21 210.94,273.91"/>
        <lane id=":2370547920_2_1" index="1" disallow="tram rail_urban rail rail_electric ship" speed="27.78" length="2.07" shape="207.41,272.36 207.55,272.87 207.64,273.21 207.70,273.57 207.75,274.09"/>
    </edge>
    <edge id=":2370547921_0" function="internal">
        <lane id=":2370547921_0_0" index="0" disallow="tram rail_urban rail rail_electric ship" speed="27.78" length="7.66" shape="206.41,283.21 206.00,281.10 206.43,279.49 206.81,277.91 206.24,275.88"/>
        <lane id=":2370547921_0_1" index="1" disallow="tram rail_urban rail rail_electric ship" speed="27.78" length="7.66" shape="209.33,281.89 208.88,279.72 209.29,278.05 209.64,276.41 209.04,274.32"/>
    </edge>
    <edge id=":2370547921_2" function="internal">
        <lane id=":2370547921_2_0" index="0" disallow="tram rail_urban rail rail_electric ship" speed="3.65" length="2.34" shape="209.33,281.89 209.54,280.46 210.09,279.76"/>
    </edge>
    <edge id=":2370547921_5" function="internal">
        <lane id=":2370547921_5_0" index="0" disallow="tram rail_urban rail rail_electric ship" speed="3.65" length="2.34" shape="210.09,279.76 210.98,279.78 212.22,280.52"/>
    </edge>
    <edge id=":2370547921_3" function="internal">
        <lane id=":2370547921_3_0" index="0" disallow="tram rail_urban rail rail_electric ship" speed="18.24" length="6.51" shape="210.96,274.21 211.04,276.14 211.16,277.47 211.49,278.75 212.22,280.52"/>
    </edge>
    <edge id=":2370547921_4" function="internal">
        <lane id=":2370547921_4_0" index="0" disallow="tram rail_urban rail rail_electric ship" speed="2.70" length="1.28" shape="207.76,274.38 209.04,274.32"/>
    </edge>
    <edge id=":2370547922_0" function="internal">
        <lane id=":2370547922_0_0" index="0" disallow="tram rail_urban rail rail_electric ship" speed="13.89" length="4.99" shape="282.70,280.62 284.98,285.06"/>
    </edge>
    <edge id=":2370547923_0" function="internal">
        <lane id=":2370547923_0_0" index="0" disallow="tram rail_urban rail rail_electric ship" speed="27.78" length="6.40" shape="209.06,289.23 206.49,283.39"/>
        <lane id=":2370547923_0_1" index="1" disallow="tram rail_urban rail rail_electric ship" speed="27.78" length="6.40" shape="211.99,287.94 209.41,282.07"/>
    </edge>
    <edge id=":2370547923_2" function="internal">
        <lane id=":2370547923_2_0" index="0" allow="delivery bicycle pedestrian" speed="5.63" length="4.71" shape="211.99,287.94 211.18,285.14 211.69,283.42"/>
    </edge>
    <edge id=":2370547923_3" function="internal">
        <lane id=":2370547923_3_0" index="0" disallow="tram rail_urban rail rail_electric ship" speed="3.65" length="2.34" shape="211.99,287.94 212.24,286.52 212.81,285.84"/>
    </edge>
    <edge id=":2370547923_7" function="internal">
        <lane id=":2370547923_7_0" index="0" allow="delivery bicycle pedestrian" speed="5.63" length="5.10" shape="211.69,283.42 213.51,282.78 216.64,283.21"/>
    </edge>
    <edge id=":2370547923_8" function="internal">
        <lane id=":2370547923_8_0" index="0" disallow="tram rail_urban rail rail_electric ship" speed="3.65" length="2.34" shape="212.81,285.84 213.71,285.88 214.92,286.66"/>
    </edge>
    <edge id=":2370547923_4" function="internal">
        <lane id=":2370547923_4_0" index="0" allow="delivery bicycle pedestrian" speed="7.01" length="5.15" shape="212.30,280.71 212.84,281.45 213.74,282.12 215.01,282.70 216.64,283.21"/>
    </edge>
    <edge id=":2370547923_5" function="internal">
        <lane id=":2370547923_5_0" index="0" disallow="tram rail_urban rail rail_electric ship" speed="27.78" length="6.50" shape="212.30,280.71 214.92,286.66"/>
    </edge>
    <edge id=":2370547923_6" function="internal">
        <lane id=":2370547923_6_0" index="0" disallow="tram rail_urban rail rail_electric ship" speed="3.65" length="2.34" shape="212.30,280.71 212.09,282.13 211.54,282.84"/>
    </edge>
    <edge id=":2370547923_9" function="internal">
        <lane id=":2370547923_9_0" index="0" disallow="tram rail_urban rail rail_electric ship" speed="3.65" length="2.34" shape="211.54,282.84 210.64,282.81 209.41,282.07"/>
    </edge>
    <edge id=":2370547934_0" function="internal">
        <lane id=":2370547934_0_0" index="0" disallow="tram rail_urban rail rail_electric ship" speed="13.89" length="4.98" shape="319.50,353.18 321.72,357.64"/>
    </edge>
    <edge id=":2370547946_0" function="internal">
        <lane id=":2370547946_0_0" index="0" disallow="tram rail_urban rail rail_electric ship" speed="27.78" length="6.40" shape="253.98,396.99 251.38,391.10"/>
        <lane id=":2370547946_0_1" index="1" disallow="tram rail_urban rail rail_electric ship" speed="27.78" length="6.40" shape="256.89,395.66 254.32,389.85"/>
    </edge>
    <edge id=":2370547946_2" function="internal">
        <lane id=":2370547946_2_0" index="0" disallow="tram rail_urban rail rail_electric ship" speed="3.65" length="2.34" shape="256.89,395.66 257.12,394.24 257.69,393.54"/>
    </edge>
    <edge id=":2370547946_7" function="internal">
        <lane id=":2370547946_7_0" index="0" disallow="tram rail_urban rail rail_electric ship" speed="3.65" length="2.34" shape="257.69,393.54 258.58,393.58 259.81,394.34"/>
    </edge>
    <edge id=":2370547946_3" function="internal">
        <lane id=":2370547946_3_0" index="0" disallow="tram rail_urban rail rail_electric ship" speed="4.62" length="4.48" shape="260.73,390.61 259.80,391.10 259.34,391.88 259.34,392.96 259.81,394.34"/>
    </edge>
    <edge id=":2370547946_4" function="internal">
        <lane id=":2370547946_4_0" index="0" disallow="tram rail_urban rail rail_electric ship" speed="6.05" length="6.97" shape="260.73,390.61 258.30,391.16 256.42,391.21 255.10,390.78 254.32,389.85"/>
    </edge>
    <edge id=":2370547946_5" function="internal">
        <lane id=":2370547946_5_0" index="0" disallow="tram rail_urban rail rail_electric ship" speed="27.78" length="6.27" shape="257.27,388.60 259.81,394.34"/>
    </edge>
    <edge id=":2370547946_6" function="internal">
        <lane id=":2370547946_6_0" index="0" disallow="tram rail_urban rail rail_electric ship" speed="3.65" length="2.34" shape="257.27,388.60 257.00,390.02 256.42,390.70"/>
    </edge>
    <edge id=":2370547946_8" function="internal">
        <lane id=":2370547946_8_0" index="0" disallow="tram rail_urban rail rail_electric ship" speed="3.65" length="2.34" shape="256.42,390.70 255.53,390.64 254.32,389.85"/>
    </edge>
    <edge id=":2370547949_0" function="internal">
        <lane id=":2370547949_0_0" index="0" disallow="tram rail_urban rail rail_electric ship" speed="27.78" length="9.54" shape="259.27,408.90 255.45,400.20"/>
        <lane id=":2370547949_0_1" index="1" disallow="tram rail_urban rail rail_electric ship" speed="27.78" length="9.54" shape="262.22,407.64 258.36,398.88"/>
    </edge>
    <edge id=":2370547949_2" function="internal">
        <lane id=":2370547949_2_0" index="0" allow="delivery bicycle pedestrian" speed="6.41" length="5.79" shape="262.22,407.64 261.25,404.42 261.47,402.00"/>
    </edge>
    <edge id=":2370547949_3" function="internal">
        <lane id=":2370547949_3_0" index="0" disallow="tram rail_urban rail rail_electric ship" speed="3.65" length="2.34" shape="262.22,407.64 262.48,406.22 263.05,405.54"/>
    </edge>
    <edge id=":2370547949_10" function="internal">
        <lane id=":2370547949_10_0" index="0" allow="delivery bicycle pedestrian" speed="6.41" length="4.83" shape="261.47,402.00 262.87,400.40 265.45,399.60"/>
    </edge>
    <edge id=":2370547949_11" function="internal">
        <lane id=":2370547949_11_0" index="0" disallow="tram rail_urban rail rail_electric ship" speed="3.65" length="2.34" shape="263.05,405.54 263.95,405.59 265.16,406.38"/>
    </edge>
    <edge id=":2370547949_4" function="internal">
        <lane id=":2370547949_4_0" index="0" disallow="tram rail_urban rail rail_electric ship" speed="4.41" length="4.36" shape="265.84,402.78 265.00,403.10 264.61,403.81 264.66,404.90 265.16,406.38"/>
    </edge>
    <edge id=":2370547949_5" function="internal">
        <lane id=":2370547949_5_0" index="0" disallow="tram rail_urban rail rail_electric ship" speed="7.37" length="9.10" shape="265.84,402.78 263.35,402.78 261.27,402.14 259.61,400.83 258.36,398.88"/>
    </edge>
    <edge id=":2370547949_6" function="internal">
        <lane id=":2370547949_6_0" index="0" allow="delivery bicycle pedestrian" speed="3.65" length="4.67" shape="265.84,402.78 264.55,402.13 264.06,401.39 264.36,400.54 265.45,399.60"/>
    </edge>
    <edge id=":2370547949_7" function="internal">
        <lane id=":2370547949_7_0" index="0" allow="delivery bicycle pedestrian" speed="5.65" length="5.02" shape="261.27,397.55 261.95,398.59 262.87,399.28 264.04,399.62 265.45,399.60"/>
    </edge>
    <edge id=":2370547949_8" function="internal">
        <lane id=":2370547949_8_0" index="0" disallow="tram rail_urban rail rail_electric ship" speed="27.78" length="9.65" shape="261.27,397.55 265.16,406.38"/>
    </edge>
    <edge id=":2370547949_9" function="internal">
        <lane id=":2370547949_9_0" index="0" disallow="tram rail_urban rail rail_electric ship" speed="3.65" length="2.34" shape="261.27,397.55 261.04,398.97 260.48,399.67"/>
    </edge>
    <edge id=":2370547949_12" function="internal">