<?xml version="1.0" encoding="UTF-8"?>

<!-- generated on 07/31/19 12:34:21 by Eclipse SUMO netconvert Version 1.1.0
<configuration xmlns:xsi="http://www.w3.org/2001/XMLSchema-instance" xsi:noNamespaceSchemaLocation="http://sumo.dlr.de/xsd/netconvertConfiguration.xsd">

    <input>
        <osm-files value="maps/OSMap.osm"/>
    </input>

    <output>
        <output-file value="mapNetconvert.net.xml"/>
    </output>

    <projection>
        <proj.utm value="true"/>
    </projection>

    <processing>
        <roundabouts.guess value="true"/>
    </processing>

    <junctions>
        <junctions.join value="true"/>
    </junctions>

</configuration>
-->

<net version="1.1" junctionCornerDetail="5" limitTurnSpeed="5.50" xmlns:xsi="http://www.w3.org/2001/XMLSchema-instance" xsi:noNamespaceSchemaLocation="http://sumo.dlr.de/xsd/net_file.xsd">

    <location netOffset="-475635.58,-5549807.93" convBoundary="0.00,0.00,5143.08,1964.04" origBoundary="8.611691,50.088670,8.731139,50.117881" projParameter="+proj=utm +zone=32 +ellps=WGS84 +datum=WGS84 +units=m +no_defs"/>

    <type id="highway.bridleway" priority="1" numLanes="1" speed="2.78" allow="pedestrian" oneway="1" width="2.00"/>
    <type id="highway.bus_guideway" priority="1" numLanes="1" speed="27.78" allow="bus" oneway="1"/>
    <type id="highway.cycleway" priority="1" numLanes="1" speed="8.33" allow="bicycle" oneway="0" width="1.00"/>
    <type id="highway.footway" priority="1" numLanes="1" speed="2.78" allow="pedestrian" oneway="1" width="2.00"/>
    <type id="highway.ford" priority="1" numLanes="1" speed="2.78" allow="army" oneway="0"/>
    <type id="highway.living_street" priority="3" numLanes="1" speed="2.78" disallow="tram rail_urban rail rail_electric ship" oneway="0"/>
    <type id="highway.motorway" priority="13" numLanes="2" speed="44.44" allow="private emergency authority army vip passenger hov taxi bus coach delivery truck trailer motorcycle evehicle custom1 custom2" oneway="1"/>
    <type id="highway.motorway_link" priority="12" numLanes="1" speed="22.22" allow="private emergency authority army vip passenger hov taxi bus coach delivery truck trailer motorcycle evehicle custom1 custom2" oneway="1"/>
    <type id="highway.path" priority="1" numLanes="1" speed="2.78" allow="bicycle pedestrian" oneway="1" width="2.00"/>
    <type id="highway.pedestrian" priority="1" numLanes="1" speed="2.78" allow="pedestrian" oneway="1" width="2.00"/>
    <type id="highway.primary" priority="9" numLanes="2" speed="27.78" disallow="tram rail_urban rail rail_electric ship" oneway="0"/>
    <type id="highway.primary_link" priority="8" numLanes="1" speed="22.22" disallow="tram rail_urban rail rail_electric ship" oneway="0"/>
    <type id="highway.raceway" priority="14" numLanes="2" speed="83.33" allow="vip" oneway="0"/>
    <type id="highway.residential" priority="4" numLanes="1" speed="13.89" disallow="tram rail_urban rail rail_electric ship" oneway="0"/>
    <type id="highway.secondary" priority="7" numLanes="2" speed="27.78" disallow="tram rail_urban rail rail_electric ship" oneway="0"/>
    <type id="highway.secondary_link" priority="6" numLanes="1" speed="22.22" disallow="tram rail_urban rail rail_electric ship" oneway="0"/>
    <type id="highway.service" priority="2" numLanes="1" speed="5.56" allow="delivery bicycle pedestrian" oneway="0"/>
    <type id="highway.stairs" priority="1" numLanes="1" speed="1.39" allow="pedestrian" oneway="1" width="2.00"/>
    <type id="highway.step" priority="1" numLanes="1" speed="1.39" allow="pedestrian" oneway="1" width="2.00"/>
    <type id="highway.steps" priority="1" numLanes="1" speed="1.39" allow="pedestrian" oneway="1" width="2.00"/>
    <type id="highway.tertiary" priority="6" numLanes="1" speed="22.22" disallow="tram rail_urban rail rail_electric ship" oneway="0"/>
    <type id="highway.tertiary_link" priority="5" numLanes="1" speed="22.22" disallow="tram rail_urban rail rail_electric ship" oneway="0"/>
    <type id="highway.track" priority="1" numLanes="1" speed="5.56" disallow="tram rail_urban rail rail_electric ship" oneway="0"/>
    <type id="highway.trunk" priority="11" numLanes="2" speed="27.78" disallow="tram rail_urban rail rail_electric bicycle pedestrian ship" oneway="0"/>
    <type id="highway.trunk_link" priority="10" numLanes="1" speed="22.22" disallow="tram rail_urban rail rail_electric bicycle pedestrian ship" oneway="0"/>
    <type id="highway.unclassified" priority="5" numLanes="1" speed="13.89" disallow="tram rail_urban rail rail_electric ship" oneway="0"/>
    <type id="highway.unsurfaced" priority="1" numLanes="1" speed="8.33" disallow="tram rail_urban rail rail_electric ship" oneway="0"/>
    <type id="railway.light_rail" priority="15" numLanes="1" speed="27.78" allow="rail_urban" oneway="1"/>
    <type id="railway.preserved" priority="15" numLanes="1" speed="27.78" allow="rail" oneway="1"/>
    <type id="railway.rail" priority="15" numLanes="1" speed="83.33" allow="rail rail_electric" oneway="1"/>
    <type id="railway.subway" priority="15" numLanes="1" speed="27.78" allow="rail_urban" oneway="1"/>
    <type id="railway.tram" priority="15" numLanes="1" speed="13.89" allow="tram" oneway="1"/>

    <edge id=":162639_0" function="internal">
        <lane id=":162639_0_0" index="0" disallow="tram rail_urban rail rail_electric ship" speed="3.65" length="4.67" shape="1449.69,1373.39 1449.32,1374.78 1448.69,1375.42 1447.80,1375.30 1446.66,1374.42"/>
    </edge>
    <edge id=":162640_0" function="internal">
        <lane id=":162640_0_0" index="0" disallow="tram rail_urban rail rail_electric ship" speed="3.65" length="4.67" shape="1578.33,1050.05 1579.19,1051.20 1579.30,1052.09 1578.65,1052.71 1577.25,1053.06"/>
    </edge>
    <edge id=":162641_0" function="internal">
        <lane id=":162641_0_0" index="0" disallow="tram rail_urban rail rail_electric ship" speed="6.51" length="8.74" shape="1486.35,1020.68 1484.01,1020.24 1482.07,1020.64 1480.51,1021.88 1479.34,1023.95"/>
    </edge>
    <edge id=":162641_1" function="internal">
        <lane id=":162641_1_0" index="0" disallow="tram rail_urban rail rail_electric ship" speed="8.33" length="14.00" shape="1486.35,1020.68 1483.20,1019.10 1480.67,1016.88 1478.52,1014.17 1476.47,1011.15"/>
    </edge>
    <edge id=":162641_2" function="internal">
        <lane id=":162641_2_0" index="0" disallow="tram rail_urban rail rail_electric ship" speed="3.65" length="4.67" shape="1486.35,1020.68 1485.47,1019.54 1485.35,1018.65 1485.98,1018.02 1487.38,1017.65"/>
    </edge>
    <edge id=":162641_3" function="internal">
        <lane id=":162641_3_0" index="0" disallow="tram rail_urban rail rail_electric ship" speed="8.33" length="12.08" shape="1476.36,1022.79 1477.46,1019.27 1477.84,1016.16 1477.51,1013.45 1476.47,1011.15"/>
    </edge>
    <edge id=":162641_4" function="internal">
        <lane id=":162641_4_0" index="0" disallow="tram rail_urban rail rail_electric ship" speed="8.01" length="13.73" shape="1476.36,1022.79 1478.19,1019.53 1480.64,1017.59 1483.70,1016.96 1487.38,1017.65"/>
    </edge>
    <edge id=":162641_5" function="internal">
        <lane id=":162641_5_0" index="0" disallow="tram rail_urban rail rail_electric ship" speed="3.65" length="4.67" shape="1476.36,1022.79 1477.54,1021.96 1478.43,1021.88 1479.03,1022.55 1479.34,1023.95"/>
    </edge>
    <edge id=":162642_0" function="internal">
        <lane id=":162642_0_0" index="0" disallow="tram rail_urban rail rail_electric ship" speed="6.59" length="2.40" shape="1305.58,961.48 1305.48,963.88"/>
    </edge>
    <edge id=":162642_1" function="internal">
        <lane id=":162642_1_0" index="0" disallow="tram rail_urban rail rail_electric ship" speed="3.65" length="4.67" shape="1302.78,962.17 1304.10,961.58 1304.99,961.67 1305.45,962.44 1305.48,963.88"/>
    </edge>
    <edge id=":162643_0" function="internal">
        <lane id=":162643_0_0" index="0" disallow="tram rail_urban rail rail_electric ship" speed="11.11" length="10.23" shape="1265.20,1054.96 1264.86,1051.96 1264.51,1049.86 1264.36,1047.77 1264.62,1044.79"/>
    </edge>
    <edge id=":162643_1" function="internal">
        <lane id=":162643_1_0" index="0" disallow="tram rail_urban rail rail_electric ship" speed="4.97" length="6.18" shape="1265.20,1054.96 1265.95,1054.74 1267.75,1055.24 1269.73,1055.99 1271.06,1056.49"/>
    </edge>
    <edge id=":162643_2" function="internal">
        <lane id=":162643_2_0" index="0" disallow="tram rail_urban rail rail_electric ship" speed="7.25" length="10.15" shape="1267.79,1045.24 1267.70,1048.24 1268.36,1050.60 1269.79,1052.33 1271.99,1053.43"/>
    </edge>
    <edge id=":162643_3" function="internal">
        <lane id=":162643_3_0" index="0" disallow="tram rail_urban rail rail_electric ship" speed="3.65" length="2.34" shape="1267.79,1045.24 1266.83,1046.32 1265.98,1046.60"/>
    </edge>
    <edge id=":162643_7" function="internal">
        <lane id=":162643_7_0" index="0" disallow="tram rail_urban rail rail_electric ship" speed="3.65" length="2.34" shape="1265.98,1046.60 1265.24,1046.09 1264.62,1044.79"/>
    </edge>
    <edge id=":162643_4" function="internal">
        <lane id=":162643_4_0" index="0" disallow="tram rail_urban rail rail_electric ship" speed="6.05" length="9.07" shape="1258.16,1048.53 1260.67,1049.13 1262.58,1048.71 1263.90,1047.26 1264.62,1044.79"/>
    </edge>
    <edge id=":162643_5" function="internal">
        <lane id=":162643_5_0" index="0" disallow="tram rail_urban rail rail_electric ship" speed="13.89" length="14.80" shape="1258.16,1048.53 1271.99,1053.43"/>
        <lane id=":162643_5_1" index="1" disallow="tram rail_urban rail rail_electric ship" speed="13.89" length="14.80" shape="1256.98,1051.50 1271.06,1056.49"/>
    </edge>
    <edge id=":1707111186_0" function="internal">
        <lane id=":1707111186_0_0" index="0" allow="rail_urban" speed="27.78" length="0.30" shape="1536.82,1111.50 1537.11,1111.58"/>
    </edge>
    <edge id=":1707111187_0" function="internal">
        <lane id=":1707111187_0_0" index="0" allow="rail_urban" speed="27.78" length="0.26" shape="1534.91,1118.86 1534.67,1118.77"/>
    </edge>
    <edge id=":18404636_0" function="internal">
        <lane id=":18404636_0_0" index="0" disallow="tram rail_urban rail rail_electric ship" speed="3.65" length="4.67" shape="1854.72,1037.02 1855.81,1037.97 1856.11,1038.81 1855.61,1039.56 1854.32,1040.20"/>
    </edge>
    <edge id=":1851644000_0" function="internal">
        <lane id=":1851644000_0_0" index="0" allow="tram" speed="13.89" length="0.30" shape="1118.60,1020.23 1118.30,1020.19"/>
    </edge>
    <edge id=":1851644049_0" function="internal">
        <lane id=":1851644049_0_0" index="0" disallow="tram rail_urban rail rail_electric ship" speed="13.89" length="6.07" shape="1371.54,1128.86 1376.78,1131.94"/>
    </edge>
    <edge id=":1851644049_1" function="internal">
        <lane id=":1851644049_1_0" index="0" disallow="tram rail_urban rail rail_electric ship" speed="4.64" length="3.76" shape="1373.34,1131.81 1373.87,1131.35 1374.62,1131.22 1375.59,1131.41 1376.78,1131.94"/>
    </edge>
    <edge id=":1851827522_0" function="internal">
        <lane id=":1851827522_0_0" index="0" disallow="tram rail_urban rail rail_electric ship" speed="13.89" length="3.02" shape="1716.17,1244.60 1713.34,1243.56"/>
    </edge>
    <edge id=":1851827522_1" function="internal">
        <lane id=":1851827522_1_0" index="0" disallow="tram rail_urban rail rail_electric ship" speed="3.65" length="2.34" shape="1716.17,1244.60 1715.31,1243.44 1715.21,1242.55"/>
    </edge>
    <edge id=":1851827522_4" function="internal">
        <lane id=":1851827522_4_0" index="0" disallow="tram rail_urban rail rail_electric ship" speed="3.65" length="2.34" shape="1715.21,1242.55 1715.86,1241.94 1717.26,1241.60"/>
    </edge>
    <edge id=":1851827522_2" function="internal">
        <lane id=":1851827522_2_0" index="0" disallow="tram rail_urban rail rail_electric ship" speed="13.89" length="2.98" shape="1714.46,1240.56 1717.26,1241.60"/>
    </edge>
    <edge id=":1851827522_3" function="internal">
        <lane id=":1851827522_3_0" index="0" disallow="tram rail_urban rail rail_electric ship" speed="3.65" length="2.34" shape="1714.46,1240.56 1715.31,1241.73 1715.40,1242.62"/>
    </edge>
    <edge id=":1851827522_5" function="internal">
        <lane id=":1851827522_5_0" index="0" disallow="tram rail_urban rail rail_electric ship" speed="3.65" length="2.34" shape="1715.40,1242.62 1714.74,1243.23 1713.34,1243.56"/>
    </edge>
    <edge id=":1851990630_0" function="internal">
        <lane id=":1851990630_0_0" index="0" disallow="tram rail_urban rail rail_electric ship" speed="8.33" length="4.65" shape="1330.57,1062.21 1331.93,1061.99 1332.87,1061.91 1333.82,1061.95 1335.19,1062.05"/>
    </edge>
    <edge id=":1851990705_0" function="internal">
        <lane id=":1851990705_0_0" index="0" allow="delivery bicycle pedestrian" speed="5.56" length="5.04" shape="1574.18,1126.69 1569.46,1124.93"/>
    </edge>
    <edge id=":1851990705_1" function="internal">
        <lane id=":1851990705_1_0" index="0" allow="delivery bicycle pedestrian" speed="3.65" length="4.67" shape="1574.18,1126.69 1573.34,1125.52 1573.24,1124.63 1573.90,1124.03 1575.30,1123.70"/>
    </edge>
    <edge id=":1851990705_2" function="internal">
        <lane id=":1851990705_2_0" index="0" allow="delivery bicycle pedestrian" speed="5.56" length="5.03" shape="1570.59,1121.93 1575.30,1123.70"/>
    </edge>
    <edge id=":1851990705_3" function="internal">
        <lane id=":1851990705_3_0" index="0" allow="delivery bicycle pedestrian" speed="3.65" length="4.67" shape="1570.59,1121.93 1571.43,1123.10 1571.52,1123.99 1570.87,1124.60 1569.46,1124.93"/>
    </edge>
    <edge id=":1852169920_0" function="internal">
        <lane id=":1852169920_0_0" index="0" allow="delivery bicycle pedestrian" speed="5.56" length="6.82" shape="1513.38,1223.09 1511.91,1224.43 1511.12,1225.56 1510.62,1226.90 1510.06,1228.84"/>
    </edge>
    <edge id=":1852169920_1" function="internal">
        <lane id=":1852169920_1_0" index="0" allow="delivery bicycle pedestrian" speed="5.56" length="8.86" shape="1513.38,1223.09 1511.67,1224.11 1509.70,1224.62 1507.44,1224.60 1504.92,1224.06"/>
    </edge>
    <edge id=":1852169920_2" function="internal">
        <lane id=":1852169920_2_0" index="0" allow="delivery bicycle pedestrian" speed="3.65" length="4.67" shape="1513.38,1223.09 1511.94,1223.23 1511.12,1222.87 1510.93,1221.99 1511.35,1220.61"/>
    </edge>
    <edge id=":1852169920_3" function="internal">
        <lane id=":1852169920_3_0" index="0" allow="delivery bicycle pedestrian" speed="5.56" length="5.73" shape="1505.84,1221.00 1507.57,1221.39 1509.06,1221.45 1510.32,1221.20 1511.35,1220.61"/>
    </edge>
    <edge id=":1852169920_4" function="internal">
        <lane id=":1852169920_4_0" index="0" allow="delivery bicycle pedestrian" speed="5.56" length="10.16" shape="1505.84,1221.00 1508.37,1222.17 1509.92,1223.86 1510.48,1226.09 1510.06,1228.84"/>
    </edge>
    <edge id=":1852169920_5" function="internal">
        <lane id=":1852169920_5_0" index="0" allow="delivery bicycle pedestrian" speed="3.65" length="4.67" shape="1505.84,1221.00 1506.76,1222.11 1506.91,1222.99 1506.30,1223.64 1504.92,1224.06"/>
    </edge>
    <edge id=":1852169920_6" function="internal">
        <lane id=":1852169920_6_0" index="0" allow="delivery bicycle pedestrian" speed="5.04" length="5.00" shape="1507.00,1227.92 1507.20,1226.57 1506.93,1225.47 1506.17,1224.64 1504.92,1224.06"/>
    </edge>
    <edge id=":1852169920_7" function="internal">
        <lane id=":1852169920_7_0" index="0" allow="delivery bicycle pedestrian" speed="5.56" length="8.73" shape="1507.00,1227.92 1507.73,1225.44 1508.40,1223.75 1509.45,1222.32 1511.35,1220.61"/>
    </edge>
    <edge id=":1852169920_8" function="internal">
        <lane id=":1852169920_8_0" index="0" allow="delivery bicycle pedestrian" speed="3.65" length="4.67" shape="1507.00,1227.92 1508.11,1227.00 1508.99,1226.85 1509.64,1227.47 1510.06,1228.84"/>
    </edge>
    <edge id=":1852665902_0" function="internal">
        <lane id=":1852665902_0_0" index="0" disallow="tram rail_urban rail rail_electric ship" speed="22.22" length="0.34" shape="1137.57,1026.69 1137.47,1026.69 1137.40,1026.69 1137.33,1026.70 1137.23,1026.71"/>
    </edge>
    <edge id=":1852666205_0" function="internal">
        <lane id=":1852666205_0_0" index="0" allow="delivery bicycle pedestrian" speed="3.65" length="4.67" shape="1367.73,1264.56 1368.73,1263.52 1369.59,1263.27 1370.30,1263.80 1370.87,1265.13"/>
    </edge>
    <edge id=":1852666241_0" function="internal">
        <lane id=":1852666241_0_0" index="0" disallow="tram rail_urban rail rail_electric ship" speed="13.89" length="5.04" shape="1246.34,1291.79 1249.28,1295.88"/>
    </edge>
    <edge id=":1853002798_0" function="internal">
        <lane id=":1853002798_0_0" index="0" disallow="tram rail_urban rail rail_electric ship" speed="8.33" length="4.98" shape="1484.33,1099.77 1479.46,1098.75"/>
    </edge>
    <edge id=":1853002798_1" function="internal">
        <lane id=":1853002798_1_0" index="0" disallow="tram rail_urban rail rail_electric ship" speed="3.65" length="4.67" shape="1484.33,1099.77 1483.33,1098.74 1483.10,1097.87 1483.66,1097.17 1485.00,1096.64"/>
    </edge>
    <edge id=":1853002798_2" function="internal">
        <lane id=":1853002798_2_0" index="0" disallow="tram rail_urban rail rail_electric ship" speed="8.33" length="5.01" shape="1480.09,1095.62 1485.00,1096.64"/>
    </edge>
    <edge id=":1853002798_3" function="internal">
        <lane id=":1853002798_3_0" index="0" disallow="tram rail_urban rail rail_electric ship" speed="3.65" length="4.67" shape="1480.09,1095.62 1481.11,1096.64 1481.34,1097.50 1480.79,1098.21 1479.46,1098.75"/>
    </edge>
    <edge id=":1853002800_0" function="internal">
        <lane id=":1853002800_0_0" index="0" allow="delivery bicycle pedestrian" speed="5.56" length="9.42" shape="1529.90,1125.24 1527.32,1124.29 1525.44,1124.03 1523.48,1124.12 1520.67,1124.19"/>
    </edge>
    <edge id=":1853002800_1" function="internal">
        <lane id=":1853002800_1_0" index="0" allow="delivery bicycle pedestrian" speed="5.56" length="10.36" shape="1529.90,1125.24 1527.16,1123.71 1525.26,1121.93 1524.20,1119.88 1523.98,1117.58"/>
    </edge>
    <edge id=":1853002800_2" function="internal">
        <lane id=":1853002800_2_0" index="0" allow="delivery bicycle pedestrian" speed="3.75" length="5.06" shape="1529.90,1125.24 1528.62,1124.34 1528.21,1123.47 1528.66,1122.61 1529.98,1121.78"/>
    </edge>
    <edge id=":1853002800_3" function="internal">
        <lane id=":1853002800_3_0" index="0" allow="delivery bicycle pedestrian" speed="5.56" length="5.18" shape="1527.17,1117.84 1527.27,1119.06 1527.77,1120.13 1528.67,1121.03 1529.98,1121.78"/>
    </edge>
    <edge id=":1853002800_4" function="internal">
        <lane id=":1853002800_4_0" index="0" allow="delivery bicycle pedestrian" speed="5.56" length="10.20" shape="1527.17,1117.84 1526.57,1120.65 1525.28,1122.64 1523.32,1123.82 1520.67,1124.19"/>
    </edge>
    <edge id=":1853002800_5" function="internal">
        <lane id=":1853002800_5_0" index="0" allow="delivery bicycle pedestrian" speed="3.65" length="4.67" shape="1527.17,1117.84 1526.28,1118.97 1525.45,1119.31 1524.68,1118.84 1523.98,1117.58"/>
    </edge>
    <edge id=":1853002800_6" function="internal">
        <lane id=":1853002800_6_0" index="0" allow="delivery bicycle pedestrian" speed="5.29" length="5.31" shape="1520.71,1120.99 1522.03,1120.79 1523.02,1120.16 1523.67,1119.09 1523.98,1117.58"/>
    </edge>
    <edge id=":1853002800_7" function="internal">
        <lane id=":1853002800_7_0" index="0" allow="delivery bicycle pedestrian" speed="5.56" length="9.45" shape="1520.71,1120.99 1523.52,1120.87 1525.49,1120.70 1527.39,1120.87 1529.98,1121.78"/>
    </edge>
    <edge id=":1853002800_8" function="internal">
        <lane id=":1853002800_8_0" index="0" allow="delivery bicycle pedestrian" speed="3.65" length="4.67" shape="1520.71,1120.99 1521.90,1121.81 1522.29,1122.61 1521.88,1123.41 1520.67,1124.19"/>
    </edge>
    <edge id=":1853002802_0" function="internal">
        <lane id=":1853002802_0_0" index="0" allow="delivery bicycle pedestrian" speed="5.56" length="4.61" shape="1531.10,1158.49 1530.28,1157.59 1529.37,1157.39 1528.29,1157.38 1526.96,1157.04"/>
    </edge>
    <edge id=":1853002802_1" function="internal">
        <lane id=":1853002802_1_0" index="0" allow="delivery bicycle pedestrian" speed="5.56" length="9.28" shape="1531.10,1158.49 1530.90,1157.41 1531.10,1155.54 1531.70,1152.88 1532.69,1149.45"/>
    </edge>
    <edge id=":1853002802_2" function="internal">
        <lane id=":1853002802_2_0" index="0" allow="delivery bicycle pedestrian" speed="3.65" length="4.67" shape="1531.10,1158.49 1531.20,1157.05 1531.70,1156.31 1532.59,1156.26 1533.88,1156.90"/>
    </edge>
    <edge id=":1853002802_3" function="internal">
        <lane id=":1853002802_3_0" index="0" allow="delivery bicycle pedestrian" speed="5.11" length="5.05" shape="1534.81,1152.55 1533.80,1153.40 1533.31,1154.41 1533.34,1155.58 1533.88,1156.90"/>
    </edge>
    <edge id=":1853002802_4" function="internal">
        <lane id=":1853002802_4_0" index="0" allow="delivery bicycle pedestrian" speed="5.56" length="9.10" shape="1534.81,1152.55 1533.35,1153.53 1530.90,1155.14 1528.45,1156.58 1526.96,1157.04"/>
    </edge>
    <edge id=":1853002802_5" function="internal">
        <lane id=":1853002802_5_0" index="0" allow="delivery bicycle pedestrian" speed="4.29" length="5.48" shape="1534.81,1152.55 1533.12,1152.57 1532.20,1152.06 1532.06,1151.02 1532.69,1149.45"/>
    </edge>
    <edge id=":1853002802_6" function="internal">
        <lane id=":1853002802_6_0" index="0" allow="delivery bicycle pedestrian" speed="5.56" length="9.69" shape="1525.11,1152.69 1527.75,1153.46 1529.89,1153.18 1531.54,1151.84 1532.69,1149.45"/>
    </edge>
    <edge id=":1853002802_7" function="internal">
        <lane id=":1853002802_7_0" index="0" allow="delivery bicycle pedestrian" speed="5.56" length="10.12" shape="1525.11,1152.69 1528.01,1153.60 1530.25,1153.97 1532.11,1154.75 1533.88,1156.90"/>
    </edge>
    <edge id=":1853002802_8" function="internal">
        <lane id=":1853002802_8_0" index="0" allow="delivery bicycle pedestrian" speed="4.19" length="6.90" shape="1525.11,1152.69 1527.21,1153.08 1528.21,1153.94 1528.13,1155.26 1526.96,1157.04"/>
    </edge>
    <edge id=":1853002807_0" function="internal">
        <lane id=":1853002807_0_0" index="0" allow="delivery bicycle pedestrian" speed="5.56" length="0.40" shape="1533.54,1162.72 1533.33,1162.38"/>
    </edge>
    <edge id=":1853002807_1" function="internal">
        <lane id=":1853002807_1_0" index="0" allow="delivery bicycle pedestrian" speed="3.65" length="2.34" shape="1533.54,1162.72 1533.52,1161.27 1533.95,1160.49"/>
    </edge>
    <edge id=":1853002807_4" function="internal">
        <lane id=":1853002807_4_0" index="0" allow="delivery bicycle pedestrian" speed="3.65" length="2.34" shape="1533.95,1160.49 1534.83,1160.37 1536.17,1160.90"/>
    </edge>
    <edge id=":1853002807_2" function="internal">
        <lane id=":1853002807_2_0" index="0" allow="delivery bicycle pedestrian" speed="5.56" length="0.13" shape="1536.10,1160.79 1536.17,1160.90"/>
    </edge>
    <edge id=":1853002807_3" function="internal">
        <lane id=":1853002807_3_0" index="0" allow="delivery bicycle pedestrian" speed="3.65" length="2.34" shape="1536.10,1160.79 1536.01,1162.22 1535.51,1162.97"/>
    </edge>
    <edge id=":1853002807_5" function="internal">
        <lane id=":1853002807_5_0" index="0" allow="delivery bicycle pedestrian" speed="3.65" length="2.34" shape="1535.51,1162.97 1534.62,1163.02 1533.33,1162.38"/>
    </edge>
    <edge id=":1853022171_0" function="internal">
        <lane id=":1853022171_0_0" index="0" allow="delivery bicycle pedestrian" speed="3.65" length="4.67" shape="1595.01,1058.93 1594.15,1057.78 1594.04,1056.89 1594.68,1056.27 1596.08,1055.91"/>
    </edge>
    <edge id=":1853022173_0" function="internal">
        <lane id=":1853022173_0_0" index="0" allow="delivery bicycle pedestrian" speed="3.65" length="4.67" shape="1605.50,1059.25 1606.36,1060.40 1606.47,1061.29 1605.83,1061.91 1604.43,1062.27"/>
    </edge>
    <edge id=":1853033907_0" function="internal">
        <lane id=":1853033907_0_0" index="0" disallow="tram rail_urban rail rail_electric ship" speed="13.89" length="5.13" shape="1735.10,1098.39 1730.02,1097.67"/>
    </edge>
    <edge id=":1853033907_1" function="internal">
        <lane id=":1853033907_1_0" index="0" disallow="tram rail_urban rail rail_electric ship" speed="3.65" length="2.34" shape="1735.10,1098.39 1734.06,1097.38 1733.81,1096.53"/>
    </edge>
    <edge id=":1853033907_4" function="internal">
        <lane id=":1853033907_4_0" index="0" disallow="tram rail_urban rail rail_electric ship" speed="3.65" length="2.34" shape="1733.81,1096.53 1734.35,1095.81 1735.67,1095.24"/>
    </edge>
    <edge id=":1853033907_2" function="internal">
        <lane id=":1853033907_2_0" index="0" disallow="tram rail_urban rail rail_electric ship" speed="13.89" length="5.34" shape="1730.38,1094.49 1735.67,1095.24"/>
    </edge>
    <edge id=":1853033907_3" function="internal">
        <lane id=":1853033907_3_0" index="0" disallow="tram rail_urban rail rail_electric ship" speed="3.65" length="2.34" shape="1730.38,1094.49 1731.48,1095.42 1731.79,1096.26"/>
    </edge>
    <edge id=":1853033907_5" function="internal">
        <lane id=":1853033907_5_0" index="0" disallow="tram rail_urban rail rail_electric ship" speed="3.65" length="2.34" shape="1731.79,1096.26 1731.30,1097.01 1730.02,1097.67"/>
    </edge>
    <edge id=":1853086676_0" function="internal">
        <lane id=":1853086676_0_0" index="0" disallow="tram rail_urban rail rail_electric ship" speed="13.89" length="4.96" shape="1722.90,1021.00 1718.06,1019.91"/>
    </edge>
    <edge id=":1853086676_1" function="internal">
        <lane id=":1853086676_1_0" index="0" disallow="tram rail_urban rail rail_electric ship" speed="3.65" length="2.34" shape="1722.90,1021.00 1721.89,1019.97 1721.66,1019.10"/>
    </edge>
    <edge id=":1853086676_4" function="internal">
        <lane id=":1853086676_4_0" index="0" disallow="tram rail_urban rail rail_electric ship" speed="3.65" length="2.34" shape="1721.66,1019.10 1722.22,1018.40 1723.56,1017.87"/>
    </edge>
    <edge id=":1853086676_2" function="internal">
        <lane id=":1853086676_2_0" index="0" disallow="tram rail_urban rail rail_electric ship" speed="13.89" length="4.88" shape="1718.79,1016.80 1723.56,1017.87"/>
    </edge>
    <edge id=":1853086676_3" function="internal">
        <lane id=":1853086676_3_0" index="0" disallow="tram rail_urban rail rail_electric ship" speed="3.65" length="2.34" shape="1718.79,1016.80 1719.78,1017.86 1719.98,1018.73"/>
    </edge>
    <edge id=":1853086676_5" function="internal">
        <lane id=":1853086676_5_0" index="0" disallow="tram rail_urban rail rail_electric ship" speed="3.65" length="2.34" shape="1719.98,1018.73 1719.41,1019.41 1718.06,1019.91"/>
    </edge>
    <edge id=":1853086774_0" function="internal">
        <lane id=":1853086774_0_0" index="0" disallow="tram rail_urban rail rail_electric ship" speed="13.89" length="5.53" shape="1776.12,1111.50 1774.49,1111.28 1773.38,1111.09 1772.28,1110.85 1770.69,1110.47"/>
    </edge>
    <edge id=":1853086774_1" function="internal">
        <lane id=":1853086774_1_0" index="0" disallow="tram rail_urban rail rail_electric ship" speed="3.65" length="2.34" shape="1776.12,1111.50 1775.03,1110.55 1774.74,1109.71"/>
    </edge>
    <edge id=":1853086774_4" function="internal">
        <lane id=":1853086774_4_0" index="0" disallow="tram rail_urban rail rail_electric ship" speed="3.65" length="2.34" shape="1774.74,1109.71 1775.24,1108.97 1776.53,1108.33"/>
    </edge>
    <edge id=":1853086774_2" function="internal">
        <lane id=":1853086774_2_0" index="0" disallow="tram rail_urban rail rail_electric ship" speed="13.89" length="5.18" shape="1771.44,1107.36 1772.94,1107.72 1773.97,1107.95 1775.01,1108.12 1776.53,1108.33"/>
    </edge>
    <edge id=":1853086774_3" function="internal">
        <lane id=":1853086774_3_0" index="0" disallow="tram rail_urban rail rail_electric ship" speed="3.65" length="2.34" shape="1771.44,1107.36 1772.42,1108.42 1772.62,1109.29"/>
    </edge>
    <edge id=":1853086774_5" function="internal">
        <lane id=":1853086774_5_0" index="0" disallow="tram rail_urban rail rail_electric ship" speed="3.65" length="2.34" shape="1772.62,1109.29 1772.04,1109.97 1770.69,1110.47"/>
    </edge>
    <edge id=":1853086780_0" function="internal">
        <lane id=":1853086780_0_0" index="0" disallow="tram rail_urban rail rail_electric ship" speed="13.89" length="5.49" shape="1827.54,1118.60 1825.98,1118.15 1824.90,1117.87 1823.80,1117.67 1822.19,1117.45"/>
    </edge>
    <edge id=":1853086780_1" function="internal">
        <lane id=":1853086780_1_0" index="0" disallow="tram rail_urban rail rail_electric ship" speed="3.65" length="2.34" shape="1827.54,1118.60 1826.61,1117.50 1826.45,1116.62"/>
    </edge>
    <edge id=":1853086780_4" function="internal">
        <lane id=":1853086780_4_0" index="0" disallow="tram rail_urban rail rail_electric ship" speed="3.65" length="2.34" shape="1826.45,1116.62 1827.06,1115.96 1828.43,1115.52"/>
    </edge>
    <edge id=":1853086780_2" function="internal">