<?xml version="1.0" encoding="UTF-8"?>

<!-- generated on 07/25/19 12:26:25 by Eclipse SUMO netconvert Version 1.1.0
<configuration xmlns:xsi="http://www.w3.org/2001/XMLSchema-instance" xsi:noNamespaceSchemaLocation="http://sumo.dlr.de/xsd/netconvertConfiguration.xsd">

    <input>
        <osm-files value="maps/OSMap.osm"/>
    </input>

    <output>
        <output-file value="mapNetconvert.net.xml"/>
    </output>

    <projection>
        <proj.utm value="true"/>
    </projection>

    <processing>
        <roundabouts.guess value="true"/>
    </processing>

    <junctions>
        <junctions.join value="true"/>
    </junctions>

</configuration>
-->

<net version="1.1" junctionCornerDetail="5" limitTurnSpeed="5.50" xmlns:xsi="http://www.w3.org/2001/XMLSchema-instance" xsi:noNamespaceSchemaLocation="http://sumo.dlr.de/xsd/net_file.xsd">

    <location netOffset="-476341.49,-5548906.84" convBoundary="0.00,0.00,1897.94,2115.40" origBoundary="8.669200,50.089367,8.701735,50.110997" projParameter="+proj=utm +zone=32 +ellps=WGS84 +datum=WGS84 +units=m +no_defs"/>

    <type id="highway.bridleway" priority="1" numLanes="1" speed="2.78" allow="pedestrian" oneway="1" width="2.00"/>
    <type id="highway.bus_guideway" priority="1" numLanes="1" speed="27.78" allow="bus" oneway="1"/>
    <type id="highway.cycleway" priority="1" numLanes="1" speed="8.33" allow="bicycle" oneway="0" width="1.00"/>
    <type id="highway.footway" priority="1" numLanes="1" speed="2.78" allow="pedestrian" oneway="1" width="2.00"/>
    <type id="highway.ford" priority="1" numLanes="1" speed="2.78" allow="army" oneway="0"/>
    <type id="highway.living_street" priority="3" numLanes="1" speed="2.78" disallow="tram rail_urban rail rail_electric ship" oneway="0"/>
    <type id="highway.motorway" priority="13" numLanes="2" speed="44.44" allow="private emergency authority army vip passenger hov taxi bus coach delivery truck trailer motorcycle evehicle custom1 custom2" oneway="1"/>
    <type id="highway.motorway_link" priority="12" numLanes="1" speed="22.22" allow="private emergency authority army vip passenger hov taxi bus coach delivery truck trailer motorcycle evehicle custom1 custom2" oneway="1"/>
    <type id="highway.path" priority="1" numLanes="1" speed="2.78" allow="bicycle pedestrian" oneway="1" width="2.00"/>
    <type id="highway.pedestrian" priority="1" numLanes="1" speed="2.78" allow="pedestrian" oneway="1" width="2.00"/>
    <type id="highway.primary" priority="9" numLanes="2" speed="27.78" disallow="tram rail_urban rail rail_electric ship" oneway="0"/>
    <type id="highway.primary_link" priority="8" numLanes="1" speed="22.22" disallow="tram rail_urban rail rail_electric ship" oneway="0"/>
    <type id="highway.raceway" priority="14" numLanes="2" speed="83.33" allow="vip" oneway="0"/>
    <type id="highway.residential" priority="4" numLanes="1" speed="13.89" disallow="tram rail_urban rail rail_electric ship" oneway="0"/>
    <type id="highway.secondary" priority="7" numLanes="2" speed="27.78" disallow="tram rail_urban rail rail_electric ship" oneway="0"/>
    <type id="highway.secondary_link" priority="6" numLanes="1" speed="22.22" disallow="tram rail_urban rail rail_electric ship" oneway="0"/>
    <type id="highway.service" priority="2" numLanes="1" speed="5.56" allow="delivery bicycle pedestrian" oneway="0"/>
    <type id="highway.stairs" priority="1" numLanes="1" speed="1.39" allow="pedestrian" oneway="1" width="2.00"/>
    <type id="highway.step" priority="1" numLanes="1" speed="1.39" allow="pedestrian" oneway="1" width="2.00"/>
    <type id="highway.steps" priority="1" numLanes="1" speed="1.39" allow="pedestrian" oneway="1" width="2.00"/>
    <type id="highway.tertiary" priority="6" numLanes="1" speed="22.22" disallow="tram rail_urban rail rail_electric ship" oneway="0"/>
    <type id="highway.tertiary_link" priority="5" numLanes="1" speed="22.22" disallow="tram rail_urban rail rail_electric ship" oneway="0"/>
    <type id="highway.track" priority="1" numLanes="1" speed="5.56" disallow="tram rail_urban rail rail_electric ship" oneway="0"/>
    <type id="highway.trunk" priority="11" numLanes="2" speed="27.78" disallow="tram rail_urban rail rail_electric bicycle pedestrian ship" oneway="0"/>
    <type id="highway.trunk_link" priority="10" numLanes="1" speed="22.22" disallow="tram rail_urban rail rail_electric bicycle pedestrian ship" oneway="0"/>
    <type id="highway.unclassified" priority="5" numLanes="1" speed="13.89" disallow="tram rail_urban rail rail_electric ship" oneway="0"/>
    <type id="highway.unsurfaced" priority="1" numLanes="1" speed="8.33" disallow="tram rail_urban rail rail_electric ship" oneway="0"/>
    <type id="railway.light_rail" priority="15" numLanes="1" speed="27.78" allow="rail_urban" oneway="1"/>
    <type id="railway.preserved" priority="15" numLanes="1" speed="27.78" allow="rail" oneway="1"/>
    <type id="railway.rail" priority="15" numLanes="1" speed="83.33" allow="rail rail_electric" oneway="1"/>
    <type id="railway.subway" priority="15" numLanes="1" speed="27.78" allow="rail_urban" oneway="1"/>
    <type id="railway.tram" priority="15" numLanes="1" speed="13.89" allow="tram" oneway="1"/>

    <edge id=":1103848206_0" function="internal">
        <lane id=":1103848206_0_0" index="0" allow="bicycle pedestrian" speed="2.78" length="0.10" width="2.00" shape="610.55,1491.28 610.55,1491.28"/>
    </edge>
    <edge id=":1110853083_0" function="internal">
        <lane id=":1110853083_0_0" index="0" disallow="tram rail_urban rail rail_electric ship" speed="13.89" length="0.42" shape="1567.91,932.78 1568.03,932.79 1568.12,932.79 1568.20,932.78 1568.33,932.76"/>
    </edge>
    <edge id=":1111705040_0" function="internal">
        <lane id=":1111705040_0_0" index="0" disallow="tram rail_urban rail rail_electric ship" speed="8.33" length="5.19" shape="1557.89,924.11 1559.00,923.04 1559.74,922.29 1560.44,921.50 1561.42,920.31"/>
    </edge>
    <edge id=":1116663013_0" function="internal">
        <lane id=":1116663013_0_0" index="0" disallow="tram rail_urban rail rail_electric ship" speed="13.89" length="6.57" shape="812.65,1069.37 811.57,1062.88"/>
    </edge>
    <edge id=":1116663013_1" function="internal">
        <lane id=":1116663013_1_0" index="0" disallow="tram rail_urban rail rail_electric ship" speed="3.65" length="2.34" shape="812.65,1069.37 813.23,1068.05 813.95,1067.51"/>
    </edge>
    <edge id=":1116663013_4" function="internal">
        <lane id=":1116663013_4_0" index="0" disallow="tram rail_urban rail rail_electric ship" speed="3.65" length="2.34" shape="813.95,1067.51 814.80,1067.77 815.80,1068.81"/>
    </edge>
    <edge id=":1116663013_2" function="internal">
        <lane id=":1116663013_2_0" index="0" disallow="tram rail_urban rail rail_electric ship" speed="13.89" length="6.51" shape="814.73,1062.39 815.80,1068.81"/>
    </edge>
    <edge id=":1116663013_3" function="internal">
        <lane id=":1116663013_3_0" index="0" disallow="tram rail_urban rail rail_electric ship" speed="3.65" length="2.34" shape="814.73,1062.39 814.13,1063.70 813.40,1064.22"/>
    </edge>
    <edge id=":1116663013_5" function="internal">
        <lane id=":1116663013_5_0" index="0" disallow="tram rail_urban rail rail_electric ship" speed="3.65" length="2.34" shape="813.40,1064.22 812.55,1063.95 811.57,1062.88"/>
    </edge>
    <edge id=":1116663017_0" function="internal">
        <lane id=":1116663017_0_0" index="0" disallow="tram rail_urban rail rail_electric ship" speed="13.89" length="5.68" shape="797.06,1091.06 795.65,1090.14 794.66,1089.52 793.62,1089.02 792.05,1088.44"/>
    </edge>
    <edge id=":1116663017_1" function="internal">
        <lane id=":1116663017_1_0" index="0" disallow="tram rail_urban rail rail_electric ship" speed="3.65" length="2.34" shape="797.06,1091.06 796.49,1089.74 796.58,1088.85"/>
    </edge>
    <edge id=":1116663017_4" function="internal">
        <lane id=":1116663017_4_0" index="0" disallow="tram rail_urban rail rail_electric ship" speed="3.65" length="2.34" shape="796.58,1088.85 797.35,1088.40 798.80,1088.38"/>
    </edge>
    <edge id=":1116663017_2" function="internal">
        <lane id=":1116663017_2_0" index="0" disallow="tram rail_urban rail rail_electric ship" speed="13.89" length="6.44" shape="793.10,1085.41 794.89,1086.08 796.07,1086.64 797.19,1087.33 798.80,1088.38"/>
    </edge>
    <edge id=":1116663017_3" function="internal">
        <lane id=":1116663017_3_0" index="0" disallow="tram rail_urban rail rail_electric ship" speed="3.65" length="2.34" shape="793.10,1085.41 793.97,1086.57 794.09,1087.45"/>
    </edge>
    <edge id=":1116663017_5" function="internal">
        <lane id=":1116663017_5_0" index="0" disallow="tram rail_urban rail rail_electric ship" speed="3.65" length="2.34" shape="794.09,1087.45 793.45,1088.08 792.05,1088.44"/>
    </edge>
    <edge id=":116865498_0" function="internal">
        <lane id=":116865498_0_0" index="0" disallow="tram rail_urban rail rail_electric ship" speed="13.89" length="7.73" shape="840.26,1084.68 840.35,1086.98 840.29,1088.61 840.49,1090.15 841.37,1092.22"/>
    </edge>
    <edge id=":116865498_1" function="internal">
        <lane id=":116865498_1_0" index="0" disallow="tram rail_urban rail rail_electric ship" speed="13.89" length="7.78" shape="836.42,1086.29 838.13,1087.85 839.27,1088.96 840.22,1090.23 841.37,1092.22"/>
    </edge>
    <edge id=":1269787817_0" function="internal">
        <lane id=":1269787817_0_0" index="0" allow="bicycle pedestrian" speed="8.33" length="3.05" width="2.00" shape="1578.39,902.30 1579.33,899.39"/>
    </edge>
    <edge id=":1269787817_1" function="internal">
        <lane id=":1269787817_1_0" index="0" disallow="tram rail_urban rail rail_electric ship" speed="13.89" length="2.73" shape="1578.39,902.30 1578.01,899.78"/>
        <lane id=":1269787817_1_1" index="1" disallow="tram rail_urban rail rail_electric ship" speed="13.89" length="2.73" shape="1581.54,901.75 1581.12,898.87"/>
    </edge>
    <edge id=":1269787914_0" function="internal">
        <lane id=":1269787914_0_0" index="0" disallow="tram rail_urban rail rail_electric ship" speed="6.83" length="3.51" shape="1617.94,956.40 1617.73,957.31 1617.99,957.96 1618.45,958.63 1618.89,959.59"/>
    </edge>
    <edge id=":1269787914_1" function="internal">
        <lane id=":1269787914_1_0" index="0" disallow="tram rail_urban rail rail_electric ship" speed="13.89" length="3.00" shape="1618.09,956.70 1618.89,959.59"/>
        <lane id=":1269787914_1_1" index="1" disallow="tram rail_urban rail rail_electric ship" speed="13.89" length="3.00" shape="1615.01,957.55 1615.80,960.45"/>
    </edge>
    <edge id=":1351861372_0" function="internal">
        <lane id=":1351861372_0_0" index="0" allow="bicycle pedestrian" speed="2.78" length="4.65" width="2.00" shape="1575.23,917.30 1574.69,916.04 1574.38,915.14 1574.22,914.20 1574.12,912.83"/>
    </edge>
    <edge id=":1351861377_0" function="internal">
        <lane id=":1351861377_0_0" index="0" disallow="tram rail_urban rail rail_electric ship" speed="4.12" length="5.03" shape="1607.42,949.98 1605.97,949.48 1605.02,949.66 1604.60,950.53 1604.69,952.09"/>
    </edge>
    <edge id=":1351861377_1" function="internal">
        <lane id=":1351861377_1_0" index="0" disallow="tram rail_urban rail rail_electric ship" speed="5.35" length="9.16" shape="1607.42,949.98 1604.43,948.85 1602.44,948.89 1601.47,950.11 1601.52,952.51"/>
    </edge>
    <edge id=":1351861377_2" function="internal">
        <lane id=":1351861377_2_0" index="0" allow="bicycle pedestrian" speed="2.78" length="13.66" width="2.00" shape="1607.42,949.98 1595.21,943.86"/>
    </edge>
    <edge id=":1351861377_3" function="internal">
        <lane id=":1351861377_3_0" index="0" disallow="tram rail_urban rail rail_electric ship" speed="13.89" length="5.54" shape="1603.82,946.67 1604.69,952.09"/>
        <lane id=":1351861377_3_1" index="1" disallow="tram rail_urban rail rail_electric ship" speed="13.89" length="5.54" shape="1600.64,947.06 1601.52,952.51"/>
        <lane id=":1351861377_3_2" index="2" disallow="tram rail_urban rail rail_electric ship" speed="13.89" length="5.54" shape="1597.46,947.45 1598.34,952.94"/>
        <lane id=":1351861377_3_3" index="3" disallow="tram rail_urban rail rail_electric ship" speed="13.89" length="5.54" shape="1594.29,947.84 1595.16,953.36"/>
    </edge>
    <edge id=":1351861377_7" function="internal">
        <lane id=":1351861377_7_0" index="0" allow="bicycle pedestrian" speed="4.02" length="4.09" width="2.00" shape="1594.29,947.84 1595.21,943.86"/>
    </edge>
    <edge id=":1351861378_0" function="internal">
        <lane id=":1351861378_0_0" index="0" allow="bicycle pedestrian" speed="4.44" length="5.18" width="2.00" shape="1579.39,952.34 1578.02,951.75 1577.05,951.91 1576.47,952.80 1576.30,954.44"/>
    </edge>
    <edge id=":1351861378_1" function="internal">
        <lane id=":1351861378_1_0" index="0" disallow="tram rail_urban rail rail_electric ship" speed="13.89" length="9.61" shape="1579.39,952.34 1571.18,947.34"/>
        <lane id=":1351861378_1_1" index="1" disallow="tram rail_urban rail rail_electric ship" speed="13.89" length="9.61" shape="1581.06,949.61 1572.85,944.61"/>
    </edge>
    <edge id=":1351861378_3" function="internal">
        <lane id=":1351861378_3_0" index="0" allow="bicycle pedestrian" speed="2.78" length="8.57" width="2.00" shape="1576.07,945.87 1576.30,954.44"/>
    </edge>
    <edge id=":1351861378_4" function="internal">
        <lane id=":1351861378_4_0" index="0" disallow="tram rail_urban rail rail_electric ship" speed="3.67" length="3.74" shape="1576.07,945.87 1575.71,946.16 1574.80,945.81 1573.72,945.17 1572.85,944.61"/>
    </edge>
    <edge id=":1351861379_0" function="internal">
        <lane id=":1351861379_0_0" index="0" allow="bicycle pedestrian" speed="2.78" length="3.18" width="2.00" shape="1610.94,951.71 1610.16,951.49 1609.57,951.68 1609.16,952.27 1608.94,953.28"/>
    </edge>
    <edge id=":1351861379_1" function="internal">
        <lane id=":1351861379_1_0" index="0" allow="bicycle pedestrian" speed="2.78" length="3.72" width="2.00" shape="1610.94,951.71 1607.60,950.07"/>
    </edge>
    <edge id=":1351861380_0" function="internal">
        <lane id=":1351861380_0_0" index="0" disallow="tram rail_urban rail rail_electric ship" speed="8.33" length="0.93" shape="1616.58,954.35 1617.49,954.14"/>
    </edge>
    <edge id=":1351861380_1" function="internal">
        <lane id=":1351861380_1_0" index="0" allow="bicycle pedestrian" speed="2.78" length="6.05" width="2.00" shape="1616.58,954.35 1614.89,953.77 1613.78,953.24 1612.71,952.64 1611.12,951.80"/>
    </edge>
    <edge id=":1351861380_2" function="internal">
        <lane id=":1351861380_2_0" index="0" disallow="tram rail_urban rail rail_electric ship" speed="13.89" length="4.90" shape="1616.55,949.33 1617.49,954.14"/>
        <lane id=":1351861380_2_1" index="1" disallow="tram rail_urban rail rail_electric ship" speed="13.89" length="4.90" shape="1613.41,949.94 1614.35,954.75"/>
    </edge>
    <edge id=":1351861380_4" function="internal">
        <lane id=":1351861380_4_0" index="0" allow="bicycle pedestrian" speed="4.07" length="4.32" width="2.00" shape="1613.41,949.94 1613.51,951.30 1613.16,952.06 1612.36,952.22 1611.12,951.80"/>
    </edge>
    <edge id=":1351861381_0" function="internal">
        <lane id=":1351861381_0_0" index="0" allow="bicycle pedestrian" speed="2.78" length="3.26" width="2.00" shape="1620.66,957.09 1619.73,956.23 1618.97,955.80 1618.41,955.80 1618.03,956.21"/>
    </edge>
    <edge id=":1351861381_1" function="internal">
        <lane id=":1351861381_1_0" index="0" allow="bicycle pedestrian" speed="2.78" length="4.82" width="2.00" shape="1620.66,957.09 1619.68,956.05 1618.95,955.37 1618.11,954.87 1616.78,954.41"/>
    </edge>
    <edge id=":1351861381_2" function="internal">
        <lane id=":1351861381_2_0" index="0" allow="bicycle pedestrian" speed="2.78" length="3.75" width="2.00" shape="1619.59,952.80 1618.03,956.21"/>
    </edge>
    <edge id=":1351861381_3" function="internal">
        <lane id=":1351861381_3_0" index="0" allow="bicycle pedestrian" speed="2.78" length="3.59" width="2.00" shape="1619.59,952.80 1619.04,953.71 1618.39,954.28 1617.64,954.51 1616.78,954.41"/>
    </edge>
    <edge id=":1351861382_0" function="internal">
        <lane id=":1351861382_0_0" index="0" disallow="tram rail_urban rail rail_electric ship" speed="7.33" length="7.79" shape="1608.91,953.48 1609.03,955.07 1609.76,956.63 1611.10,958.16 1613.04,959.64"/>
    </edge>
    <edge id=":1351861382_1" function="internal">
        <lane id=":1351861382_1_0" index="0" allow="bicycle pedestrian" speed="2.78" length="10.21" width="2.00" shape="1608.91,953.48 1608.11,963.66"/>
    </edge>
    <edge id=":1351861382_2" function="internal">
        <lane id=":1351861382_2_0" index="0" disallow="tram rail_urban rail rail_electric ship" speed="13.89" length="7.45" shape="1606.75,955.59 1613.04,959.64"/>
        <lane id=":1351861382_2_1" index="1" disallow="tram rail_urban rail rail_electric ship" speed="13.89" length="7.45" shape="1605.05,958.31 1611.28,962.32"/>
    </edge>
    <edge id=":1351861382_4" function="internal">
        <lane id=":1351861382_4_0" index="0" allow="bicycle pedestrian" speed="7.01" length="6.48" width="2.00" shape="1605.05,958.31 1606.45,959.39 1607.42,960.65 1607.98,962.07 1608.11,963.66"/>
    </edge>
    <edge id=":1351861383_0" function="internal">
        <lane id=":1351861383_0_0" index="0" allow="bicycle pedestrian" speed="4.43" length="5.25" width="2.00" shape="1611.16,972.88 1609.76,972.27 1608.79,972.42 1608.24,973.32 1608.10,974.99"/>
    </edge>
    <edge id=":1351861383_1" function="internal">
        <lane id=":1351861383_1_0" index="0" disallow="tram rail_urban rail rail_electric ship" speed="13.89" length="7.10" shape="1611.16,972.88 1605.09,969.13"/>
        <lane id=":1351861383_1_1" index="1" disallow="tram rail_urban rail rail_electric ship" speed="13.89" length="7.10" shape="1612.84,970.16 1606.83,966.45"/>
    </edge>
    <edge id=":1351861383_3" function="internal">
        <lane id=":1351861383_3_0" index="0" allow="bicycle pedestrian" speed="2.78" length="11.14" width="2.00" shape="1608.10,963.86 1608.10,974.99"/>
    </edge>
    <edge id=":1351861383_4" function="internal">
        <lane id=":1351861383_4_0" index="0" disallow="tram rail_urban rail rail_electric ship" speed="3.59" length="3.42" shape="1608.10,963.86 1607.97,965.27 1607.71,966.18 1607.33,966.57 1606.83,966.45"/>
    </edge>
    <edge id=":1351861385_0" function="internal">
        <lane id=":1351861385_0_0" index="0" disallow="tram rail_urban rail rail_electric ship" speed="4.80" length="4.67" shape="1592.47,974.81 1591.17,974.27 1590.34,973.53 1589.96,972.59 1590.03,971.45"/>
    </edge>
    <edge id=":1351861385_1" function="internal">
        <lane id=":1351861385_1_0" index="0" disallow="tram rail_urban rail rail_electric ship" speed="4.35" length="3.83" shape="1584.15,972.59 1585.14,972.66 1585.93,972.37 1586.53,971.71 1586.92,970.69"/>
    </edge>
    <edge id=":1351861385_2" function="internal">
        <lane id=":1351861385_2_0" index="0" disallow="tram rail_urban rail rail_electric ship" speed="13.89" length="5.17" shape="1585.73,975.75 1586.92,970.69"/>
        <lane id=":1351861385_2_1" index="1" disallow="tram rail_urban rail rail_electric ship" speed="13.89" length="5.17" shape="1588.85,976.46 1590.03,971.45"/>
    </edge>
    <edge id=":1351861386_0" function="internal">
        <lane id=":1351861386_0_0" index="0" disallow="tram rail_urban rail rail_electric ship" speed="4.20" length="3.84" shape="1600.80,977.67 1599.86,977.46 1599.08,977.68 1598.46,978.33 1598.01,979.40"/>
    </edge>
    <edge id=":1351861386_1" function="internal">
        <lane id=":1351861386_1_0" index="0" allow="bicycle pedestrian" speed="2.78" length="8.53" width="2.00" shape="1600.80,977.67 1598.46,976.71 1596.83,976.12 1595.17,975.60 1592.74,974.89"/>
    </edge>
    <edge id=":1351861386_2" function="internal">
        <lane id=":1351861386_2_0" index="0" disallow="tram rail_urban rail rail_electric ship" speed="13.89" length="5.40" shape="1599.49,974.20 1598.01,979.40"/>
        <lane id=":1351861386_2_1" index="1" disallow="tram rail_urban rail rail_electric ship" speed="13.89" length="5.40" shape="1596.41,973.34 1594.94,978.52"/>
    </edge>
    <edge id=":1351861386_4" function="internal">
        <lane id=":1351861386_4_0" index="0" allow="bicycle pedestrian" speed="4.83" length="4.53" width="2.00" shape="1596.41,973.34 1595.92,974.34 1595.15,974.94 1594.09,975.12 1592.74,974.89"/>
    </edge>
    <edge id=":1438388131_0" function="internal">
        <lane id=":1438388131_0_0" index="0" allow="delivery bicycle pedestrian" speed="6.57" length="6.75" shape="1758.31,1421.85 1757.22,1421.17 1755.79,1420.99 1754.03,1421.30 1751.94,1422.10"/>
    </edge>
    <edge id=":1438388131_1" function="internal">
        <lane id=":1438388131_1_0" index="0" disallow="tram rail_urban rail rail_electric ship" speed="13.89" length="9.83" shape="1758.31,1421.85 1751.34,1414.92"/>
    </edge>
    <edge id=":1438388131_2" function="internal">
        <lane id=":1438388131_2_0" index="0" disallow="tram rail_urban rail rail_electric ship" speed="3.65" length="2.34" shape="1758.31,1421.85 1758.03,1420.44 1758.31,1419.59"/>
    </edge>
    <edge id=":1438388131_9" function="internal">
        <lane id=":1438388131_9_0" index="0" disallow="tram rail_urban rail rail_electric ship" speed="3.65" length="2.34" shape="1758.31,1419.59 1759.16,1419.30 1760.58,1419.59"/>
    </edge>
    <edge id=":1438388131_3" function="internal">
        <lane id=":1438388131_3_0" index="0" disallow="tram rail_urban rail rail_electric ship" speed="13.89" length="9.84" shape="1753.59,1412.65 1760.58,1419.59"/>
    </edge>
    <edge id=":1438388131_4" function="internal">
        <lane id=":1438388131_4_0" index="0" allow="delivery bicycle pedestrian" speed="6.68" length="5.45" shape="1753.59,1412.65 1755.73,1415.46 1756.06,1417.35"/>
    </edge>
    <edge id=":1438388131_5" function="internal">
        <lane id=":1438388131_5_0" index="0" disallow="tram rail_urban rail rail_electric ship" speed="3.65" length="2.34" shape="1753.59,1412.65 1753.88,1414.06 1753.60,1414.91"/>
    </edge>
    <edge id=":1438388131_10" function="internal">
        <lane id=":1438388131_10_0" index="0" allow="delivery bicycle pedestrian" speed="6.68" length="6.70" shape="1756.06,1417.35 1756.16,1417.97 1754.90,1420.18 1751.94,1422.10"/>
    </edge>
    <edge id=":1438388131_11" function="internal">
        <lane id=":1438388131_11_0" index="0" disallow="tram rail_urban rail rail_electric ship" speed="3.65" length="2.34" shape="1753.60,1414.91 1752.76,1415.20 1751.34,1414.92"/>
    </edge>
    <edge id=":1438388131_6" function="internal">
        <lane id=":1438388131_6_0" index="0" disallow="tram rail_urban rail rail_electric ship" speed="4.75" length="5.50" shape="1750.59,1419.20 1751.93,1418.33 1752.50,1417.33 1752.31,1416.19 1751.34,1414.92"/>
    </edge>
    <edge id=":1438388131_7" function="internal">
        <lane id=":1438388131_7_0" index="0" disallow="tram rail_urban rail rail_electric ship" speed="8.10" length="10.66" shape="1750.59,1419.20 1753.67,1418.08 1756.36,1417.77 1758.66,1418.28 1760.58,1419.59"/>
    </edge>
    <edge id=":1438388131_8" function="internal">
        <lane id=":1438388131_8_0" index="0" allow="delivery bicycle pedestrian" speed="3.65" length="4.67" shape="1750.59,1419.20 1752.02,1419.42 1752.72,1419.97 1752.69,1420.87 1751.94,1422.10"/>
    </edge>
    <edge id=":1438388138_0" function="internal">
        <lane id=":1438388138_0_0" index="0" allow="delivery bicycle pedestrian" speed="3.65" length="4.67" shape="1703.97,1444.36 1702.55,1444.14 1701.85,1443.58 1701.87,1442.68 1702.63,1441.45"/>
    </edge>
    <edge id=":1438388149_0" function="internal">
        <lane id=":1438388149_0_0" index="0" disallow="tram rail_urban rail rail_electric ship" speed="13.89" length="5.07" shape="1765.36,1476.22 1770.18,1474.62"/>
    </edge>
    <edge id=":1445858101_0" function="internal">
        <lane id=":1445858101_0_0" index="0" allow="tram" speed="13.89" length="8.03" shape="1666.71,1233.22 1659.46,1229.75"/>
    </edge>
    <edge id=":1445858101_1" function="internal">
        <lane id=":1445858101_1_0" index="0" allow="tram" speed="13.89" length="8.10" shape="1658.83,1233.80 1661.16,1233.19 1662.78,1232.80 1664.42,1232.69 1666.79,1232.89"/>
    </edge>
    <edge id=":1445858110_0" function="internal">
        <lane id=":1445858110_0_0" index="0" allow="tram" speed="13.89" length="0.27" shape="1636.40,1248.31 1636.29,1248.55"/>
    </edge>
    <edge id=":1445862491_0" function="internal">
        <lane id=":1445862491_0_0" index="0" allow="tram" speed="13.89" length="8.57" shape="1638.02,1219.32 1630.34,1215.51"/>
    </edge>
    <edge id=":1445862491_1" function="internal">
        <lane id=":1445862491_1_0" index="0" allow="tram" speed="13.89" length="8.58" shape="1630.61,1215.01 1632.38,1216.80 1633.36,1218.23 1634.12,1219.84 1635.22,1222.14"/>
    </edge>
    <edge id=":1445862504_0" function="internal">
        <lane id=":1445862504_0_0" index="0" disallow="tram rail_urban rail rail_electric ship" speed="8.33" length="2.49" shape="1792.36,1268.78 1794.83,1269.12"/>
    </edge>
    <edge id=":1445862504_1" function="internal">
        <lane id=":1445862504_1_0" index="0" disallow="tram rail_urban rail rail_electric ship" speed="6.95" length="2.44" shape="1792.41,1269.26 1793.13,1269.15 1793.62,1269.07 1794.11,1269.04 1794.83,1269.12"/>
    </edge>
    <edge id=":1445862518_0" function="internal">
        <lane id=":1445862518_0_0" index="0" allow="tram" speed="13.89" length="17.61" shape="1623.76,1321.82 1624.17,1325.95 1624.84,1330.55 1625.62,1335.13 1626.31,1339.24"/>
    </edge>
    <edge id=":1445862518_1" function="internal">
        <lane id=":1445862518_1_0" index="0" allow="tram" speed="13.89" length="17.48" shape="1620.43,1322.80 1621.72,1326.73 1623.50,1330.99 1625.22,1335.27 1626.31,1339.24"/>
    </edge>
    <edge id=":1478148665_0" function="internal">
        <lane id=":1478148665_0_0" index="0" disallow="tram rail_urban rail rail_electric ship" speed="8.33" length="13.05" shape="1438.19,1426.93 1450.43,1422.39"/>
    </edge>
    <edge id=":1478148665_1" function="internal">
        <lane id=":1478148665_1_0" index="0" disallow="tram rail_urban rail rail_electric ship" speed="11.11" length="13.06" shape="1438.19,1426.93 1441.44,1425.96 1444.49,1425.75 1447.61,1425.89 1451.09,1425.97"/>
    </edge>
    <edge id=":1478148928_0" function="internal">
        <lane id=":1478148928_0_0" index="0" disallow="tram rail_urban rail rail_electric ship" speed="13.89" length="0.19" shape="1440.01,1643.98 1439.86,1644.09"/>
    </edge>
    <edge id=":1478148928_1" function="internal">
        <lane id=":1478148928_1_0" index="0" disallow="tram rail_urban rail rail_electric ship" speed="3.65" length="2.34" shape="1440.01,1643.98 1438.57,1644.02 1437.78,1643.60"/>
    </edge>
    <edge id=":1478148928_4" function="internal">
        <lane id=":1478148928_4_0" index="0" disallow="tram rail_urban rail rail_electric ship" speed="3.65" length="2.34" shape="1437.78,1643.60 1437.64,1642.72 1438.16,1641.37"/>
    </edge>
    <edge id=":1478148928_2" function="internal">
        <lane id=":1478148928_2_0" index="0" disallow="tram rail_urban rail rail_electric ship" speed="13.89" length="0.30" shape="1437.92,1641.55 1438.16,1641.37"/>
    </edge>
    <edge id=":1478148928_3" function="internal">
        <lane id=":1478148928_3_0" index="0" disallow="tram rail_urban rail rail_electric ship" speed="3.65" length="2.34" shape="1437.92,1641.55 1439.36,1641.46 1440.16,1641.85"/>
    </edge>
    <edge id=":1478148928_5" function="internal">
        <lane id=":1478148928_5_0" index="0" disallow="tram rail_urban rail rail_electric ship" speed="3.65" length="2.34" shape="1440.16,1641.85 1440.33,1642.73 1439.86,1644.09"/>
    </edge>
    <edge id=":1478148935_0" function="internal">
        <lane id=":1478148935_0_0" index="0" disallow="tram rail_urban rail rail_electric ship" speed="11.11" length="0.22" shape="1433.17,1649.17 1432.99,1649.31"/>
    </edge>
    <edge id=":1478148935_1" function="internal">
        <lane id=":1478148935_1_0" index="0" disallow="tram rail_urban rail rail_electric ship" speed="3.65" length="2.34" shape="1433.17,1649.17 1431.73,1649.26 1430.92,1648.87"/>
    </edge>
    <edge id=":1478148935_4" function="internal">
        <lane id=":1478148935_4_0" index="0" disallow="tram rail_urban rail rail_electric ship" speed="3.65" length="2.34" shape="1430.92,1648.87 1430.76,1647.99 1431.23,1646.62"/>
    </edge>
    <edge id=":1478148935_2" function="internal">
        <lane id=":1478148935_2_0" index="0" disallow="tram rail_urban rail rail_electric ship" speed="11.11" length="0.31" shape="1430.99,1646.81 1431.23,1646.62"/>
    </edge>
    <edge id=":1478148935_3" function="internal">
        <lane id=":1478148935_3_0" index="0" disallow="tram rail_urban rail rail_electric ship" speed="3.65" length="2.34" shape="1430.99,1646.81 1432.42,1646.69 1433.24,1647.06"/>
    </edge>
    <edge id=":1478148935_5" function="internal">
        <lane id=":1478148935_5_0" index="0" disallow="tram rail_urban rail rail_electric ship" speed="3.65" length="2.34" shape="1433.24,1647.06 1433.43,1647.94 1432.99,1649.31"/>
    </edge>
    <edge id=":1505244733_0" function="internal">