<?xml version="1.0" encoding="UTF-8"?>

<!-- generated on 07/19/19 11:35:26 by Eclipse SUMO netconvert Version 1.1.0
<configuration xmlns:xsi="http://www.w3.org/2001/XMLSchema-instance" xsi:noNamespaceSchemaLocation="http://sumo.dlr.de/xsd/netconvertConfiguration.xsd">

    <input>
        <osm-files value="./maps/OSMap.osm"/>
    </input>

    <output>
        <output-file value="mapNetconvert.net.xml"/>
    </output>

    <projection>
        <proj.utm value="true"/>
    </projection>

    <processing>
        <roundabouts.guess value="true"/>
    </processing>

    <junctions>
        <junctions.join value="true"/>
    </junctions>

</configuration>
-->

<net version="1.1" junctionCornerDetail="5" limitTurnSpeed="5.50" xmlns:xsi="http://www.w3.org/2001/XMLSchema-instance" xsi:noNamespaceSchemaLocation="http://sumo.dlr.de/xsd/net_file.xsd">

    <location netOffset="-477443.74,-5551732.89" convBoundary="0.00,0.00,2560.49,2920.75" origBoundary="8.684400,50.117421,8.720198,50.143701" projParameter="+proj=utm +zone=32 +ellps=WGS84 +datum=WGS84 +units=m +no_defs"/>

    <type id="highway.bridleway" priority="1" numLanes="1" speed="2.78" allow="pedestrian" oneway="1" width="2.00"/>
    <type id="highway.bus_guideway" priority="1" numLanes="1" speed="27.78" allow="bus" oneway="1"/>
    <type id="highway.cycleway" priority="1" numLanes="1" speed="8.33" allow="bicycle" oneway="0" width="1.00"/>
    <type id="highway.footway" priority="1" numLanes="1" speed="2.78" allow="pedestrian" oneway="1" width="2.00"/>
    <type id="highway.ford" priority="1" numLanes="1" speed="2.78" allow="army" oneway="0"/>
    <type id="highway.living_street" priority="3" numLanes="1" speed="2.78" disallow="tram rail_urban rail rail_electric ship" oneway="0"/>
    <type id="highway.motorway" priority="13" numLanes="2" speed="44.44" allow="private emergency authority army vip passenger hov taxi bus coach delivery truck trailer motorcycle evehicle custom1 custom2" oneway="1"/>
    <type id="highway.motorway_link" priority="12" numLanes="1" speed="22.22" allow="private emergency authority army vip passenger hov taxi bus coach delivery truck trailer motorcycle evehicle custom1 custom2" oneway="1"/>
    <type id="highway.path" priority="1" numLanes="1" speed="2.78" allow="bicycle pedestrian" oneway="1" width="2.00"/>
    <type id="highway.pedestrian" priority="1" numLanes="1" speed="2.78" allow="pedestrian" oneway="1" width="2.00"/>
    <type id="highway.primary" priority="9" numLanes="2" speed="27.78" disallow="tram rail_urban rail rail_electric ship" oneway="0"/>
    <type id="highway.primary_link" priority="8" numLanes="1" speed="22.22" disallow="tram rail_urban rail rail_electric ship" oneway="0"/>
    <type id="highway.raceway" priority="14" numLanes="2" speed="83.33" allow="vip" oneway="0"/>
    <type id="highway.residential" priority="4" numLanes="1" speed="13.89" disallow="tram rail_urban rail rail_electric ship" oneway="0"/>
    <type id="highway.secondary" priority="7" numLanes="2" speed="27.78" disallow="tram rail_urban rail rail_electric ship" oneway="0"/>
    <type id="highway.secondary_link" priority="6" numLanes="1" speed="22.22" disallow="tram rail_urban rail rail_electric ship" oneway="0"/>
    <type id="highway.service" priority="2" numLanes="1" speed="5.56" allow="delivery bicycle pedestrian" oneway="0"/>
    <type id="highway.stairs" priority="1" numLanes="1" speed="1.39" allow="pedestrian" oneway="1" width="2.00"/>
    <type id="highway.step" priority="1" numLanes="1" speed="1.39" allow="pedestrian" oneway="1" width="2.00"/>
    <type id="highway.steps" priority="1" numLanes="1" speed="1.39" allow="pedestrian" oneway="1" width="2.00"/>
    <type id="highway.tertiary" priority="6" numLanes="1" speed="22.22" disallow="tram rail_urban rail rail_electric ship" oneway="0"/>
    <type id="highway.tertiary_link" priority="5" numLanes="1" speed="22.22" disallow="tram rail_urban rail rail_electric ship" oneway="0"/>
    <type id="highway.track" priority="1" numLanes="1" speed="5.56" disallow="tram rail_urban rail rail_electric ship" oneway="0"/>
    <type id="highway.trunk" priority="11" numLanes="2" speed="27.78" disallow="tram rail_urban rail rail_electric bicycle pedestrian ship" oneway="0"/>
    <type id="highway.trunk_link" priority="10" numLanes="1" speed="22.22" disallow="tram rail_urban rail rail_electric bicycle pedestrian ship" oneway="0"/>
    <type id="highway.unclassified" priority="5" numLanes="1" speed="13.89" disallow="tram rail_urban rail rail_electric ship" oneway="0"/>
    <type id="highway.unsurfaced" priority="1" numLanes="1" speed="8.33" disallow="tram rail_urban rail rail_electric ship" oneway="0"/>
    <type id="railway.light_rail" priority="15" numLanes="1" speed="27.78" allow="rail_urban" oneway="1"/>
    <type id="railway.preserved" priority="15" numLanes="1" speed="27.78" allow="rail" oneway="1"/>
    <type id="railway.rail" priority="15" numLanes="1" speed="83.33" allow="rail rail_electric" oneway="1"/>
    <type id="railway.subway" priority="15" numLanes="1" speed="27.78" allow="rail_urban" oneway="1"/>
    <type id="railway.tram" priority="15" numLanes="1" speed="13.89" allow="tram" oneway="1"/>

    <edge id=":1037748819_0" function="internal">
        <lane id=":1037748819_0_0" index="0" disallow="tram rail_urban rail rail_electric ship" speed="8.33" length="7.13" shape="1151.98,1611.57 1151.35,1613.59 1150.88,1614.96 1150.33,1616.30 1149.45,1618.22"/>
    </edge>
    <edge id=":1037748819_1" function="internal">
        <lane id=":1037748819_1_0" index="0" disallow="tram rail_urban rail rail_electric ship" speed="3.65" length="2.34" shape="1151.98,1611.57 1150.86,1612.48 1149.98,1612.62"/>
    </edge>
    <edge id=":1037748819_4" function="internal">
        <lane id=":1037748819_4_0" index="0" disallow="tram rail_urban rail rail_electric ship" speed="3.65" length="2.34" shape="1149.98,1612.62 1149.33,1612.00 1148.92,1610.62"/>
    </edge>
    <edge id=":1037748819_2" function="internal">
        <lane id=":1037748819_2_0" index="0" disallow="tram rail_urban rail rail_electric ship" speed="8.33" length="6.68" shape="1146.55,1616.86 1147.38,1615.06 1147.89,1613.80 1148.33,1612.52 1148.92,1610.62"/>
    </edge>
    <edge id=":1037748819_3" function="internal">
        <lane id=":1037748819_3_0" index="0" disallow="tram rail_urban rail rail_electric ship" speed="3.65" length="2.34" shape="1146.55,1616.86 1147.78,1616.11 1148.67,1616.09"/>
    </edge>
    <edge id=":1037748819_5" function="internal">
        <lane id=":1037748819_5_0" index="0" disallow="tram rail_urban rail rail_electric ship" speed="3.65" length="2.34" shape="1148.67,1616.09 1149.23,1616.79 1149.45,1618.22"/>
    </edge>
    <edge id=":1037808737_0" function="internal">
        <lane id=":1037808737_0_0" index="0" allow="delivery bicycle pedestrian" speed="5.09" length="4.95" shape="1111.86,2390.10 1111.29,2388.88 1110.45,2388.12 1109.37,2387.82 1108.03,2387.98"/>
    </edge>
    <edge id=":1037808737_1" function="internal">
        <lane id=":1037808737_1_0" index="0" disallow="tram rail_urban rail rail_electric ship" speed="8.33" length="9.15" shape="1111.86,2390.10 1111.06,2387.50 1110.58,2385.71 1110.24,2383.88 1109.84,2381.19"/>
    </edge>
    <edge id=":1037808737_2" function="internal">
        <lane id=":1037808737_2_0" index="0" disallow="tram rail_urban rail rail_electric ship" speed="3.65" length="2.34" shape="1111.86,2390.10 1112.27,2388.72 1112.92,2388.10"/>
    </edge>
    <edge id=":1037808737_9" function="internal">
        <lane id=":1037808737_9_0" index="0" disallow="tram rail_urban rail rail_electric ship" speed="3.65" length="2.34" shape="1112.92,2388.10 1113.80,2388.24 1114.92,2389.15"/>
    </edge>
    <edge id=":1037808737_3" function="internal">
        <lane id=":1037808737_3_0" index="0" disallow="tram rail_urban rail rail_electric ship" speed="8.33" length="8.63" shape="1113.01,2380.74 1113.38,2383.28 1113.71,2385.00 1114.16,2386.70 1114.92,2389.15"/>
    </edge>
    <edge id=":1037808737_4" function="internal">
        <lane id=":1037808737_4_0" index="0" allow="delivery bicycle pedestrian" speed="6.95" length="4.82" shape="1113.01,2380.74 1113.00,2383.33 1112.17,2385.40"/>
    </edge>
    <edge id=":1037808737_5" function="internal">
        <lane id=":1037808737_5_0" index="0" disallow="tram rail_urban rail rail_electric ship" speed="3.65" length="2.34" shape="1113.01,2380.74 1112.39,2382.04 1111.65,2382.55"/>
    </edge>
    <edge id=":1037808737_10" function="internal">
        <lane id=":1037808737_10_0" index="0" allow="delivery bicycle pedestrian" speed="6.95" length="4.95" shape="1112.17,2385.40 1110.51,2386.95 1108.03,2387.98"/>
    </edge>
    <edge id=":1037808737_11" function="internal">
        <lane id=":1037808737_11_0" index="0" disallow="tram rail_urban rail rail_electric ship" speed="3.65" length="2.34" shape="1111.65,2382.55 1110.80,2382.27 1109.84,2381.19"/>
    </edge>
    <edge id=":1037808737_6" function="internal">
        <lane id=":1037808737_6_0" index="0" disallow="tram rail_urban rail rail_electric ship" speed="5.27" length="5.05" shape="1107.21,2384.89 1108.51,2384.36 1109.39,2383.56 1109.83,2382.51 1109.84,2381.19"/>
    </edge>
    <edge id=":1037808737_7" function="internal">
        <lane id=":1037808737_7_0" index="0" disallow="tram rail_urban rail rail_electric ship" speed="6.90" length="9.95" shape="1107.21,2384.89 1109.90,2384.57 1112.08,2385.17 1113.76,2386.70 1114.92,2389.15"/>
    </edge>
    <edge id=":1037808737_8" function="internal">
        <lane id=":1037808737_8_0" index="0" allow="delivery bicycle pedestrian" speed="3.65" length="4.67" shape="1107.21,2384.89 1108.57,2385.36 1109.16,2386.03 1108.98,2386.90 1108.03,2387.98"/>
    </edge>
    <edge id=":1138893008_0" function="internal">
        <lane id=":1138893008_0_0" index="0" allow="delivery bicycle pedestrian" speed="5.56" length="11.04" shape="2124.77,2049.58 2127.87,2049.60 2130.05,2050.64 2131.31,2052.71 2131.65,2055.79"/>
    </edge>
    <edge id=":1138893008_1" function="internal">
        <lane id=":1138893008_1_0" index="0" allow="delivery bicycle pedestrian" speed="3.65" length="4.67" shape="2124.77,2049.58 2126.06,2050.21 2126.57,2050.95 2126.28,2051.79 2125.20,2052.75"/>
    </edge>
    <edge id=":1138893008_2" function="internal">
        <lane id=":1138893008_2_0" index="0" allow="delivery bicycle pedestrian" speed="4.88" length="5.21" shape="2128.45,2055.68 2128.29,2054.23 2127.69,2053.25 2126.66,2052.76 2125.20,2052.75"/>
    </edge>
    <edge id=":1138893008_3" function="internal">
        <lane id=":1138893008_3_0" index="0" allow="delivery bicycle pedestrian" speed="3.65" length="4.67" shape="2128.45,2055.68 2129.29,2054.51 2130.10,2054.14 2130.89,2054.56 2131.65,2055.79"/>
    </edge>
    <edge id=":1138893010_0" function="internal">
        <lane id=":1138893010_0_0" index="0" disallow="tram rail_urban rail rail_electric ship" speed="13.89" length="3.01" shape="1989.07,2079.17 1988.56,2076.20"/>
        <lane id=":1138893010_0_1" index="1" disallow="tram rail_urban rail rail_electric ship" speed="13.89" length="3.01" shape="1992.22,2078.63 1991.71,2075.65"/>
    </edge>
    <edge id=":1138893010_2" function="internal">
        <lane id=":1138893010_2_0" index="0" allow="delivery bicycle pedestrian" speed="4.82" length="3.45" shape="1992.22,2078.63 1992.18,2077.10 1992.66,2076.05 1993.34,2075.67"/>
    </edge>
    <edge id=":1138893010_3" function="internal">
        <lane id=":1138893010_3_0" index="0" disallow="tram rail_urban rail rail_electric ship" speed="3.65" length="2.34" shape="1992.22,2078.63 1992.81,2077.31 1993.53,2076.78"/>
    </edge>
    <edge id=":1138893010_11" function="internal">
        <lane id=":1138893010_11_0" index="0" allow="delivery bicycle pedestrian" speed="4.82" length="1.89" shape="1993.34,2075.67 1993.66,2075.49 1995.18,2075.41"/>
    </edge>
    <edge id=":1138893010_12" function="internal">
        <lane id=":1138893010_12_0" index="0" disallow="tram rail_urban rail rail_electric ship" speed="3.65" length="2.34" shape="1993.53,2076.78 1994.39,2077.04 1995.38,2078.09"/>
    </edge>
    <edge id=":1138893010_4" function="internal">
        <lane id=":1138893010_4_0" index="0" disallow="tram rail_urban rail rail_electric ship" speed="4.20" length="3.78" shape="1994.90,2078.59 1998.53,2077.55"/>
    </edge>
    <edge id=":1138893010_5" function="internal">
        <lane id=":1138893010_5_0" index="0" disallow="tram rail_urban rail rail_electric ship" speed="5.40" length="4.71" shape="1994.90,2078.59 1993.68,2078.32 1992.74,2077.74 1992.09,2076.85 1991.71,2075.65"/>
    </edge>
    <edge id=":1138893010_6" function="internal">
        <lane id=":1138893010_6_0" index="0" allow="delivery bicycle pedestrian" speed="3.65" length="4.67" shape="1994.90,2078.59 1993.78,2077.69 1993.45,2076.86 1993.92,2076.10 1995.18,2075.41"/>
    </edge>
    <edge id=":1138893010_7" function="internal">
        <lane id=":1138893010_7_0" index="0" allow="delivery bicycle pedestrian" speed="4.46" length="2.96" shape="1998.02,2074.55 1995.18,2075.41"/>
    </edge>
    <edge id=":1138893010_8" function="internal">
        <lane id=":1138893010_8_0" index="0" disallow="tram rail_urban rail rail_electric ship" speed="13.89" length="3.04" shape="1998.02,2074.55 1998.53,2077.55"/>
        <lane id=":1138893010_8_1" index="1" disallow="tram rail_urban rail rail_electric ship" speed="13.89" length="3.04" shape="1994.86,2075.10 1995.38,2078.09"/>
    </edge>
    <edge id=":1138893010_10" function="internal">
        <lane id=":1138893010_10_0" index="0" disallow="tram rail_urban rail rail_electric ship" speed="3.65" length="2.34" shape="1994.86,2075.10 1994.28,2076.42 1993.56,2076.95"/>
    </edge>
    <edge id=":1138893010_13" function="internal">
        <lane id=":1138893010_13_0" index="0" disallow="tram rail_urban rail rail_electric ship" speed="3.65" length="2.34" shape="1993.56,2076.95 1992.71,2076.70 1991.71,2075.65"/>
    </edge>
    <edge id=":1138893014_0" function="internal">
        <lane id=":1138893014_0_0" index="0" allow="delivery bicycle pedestrian" speed="5.56" length="14.83" shape="2105.76,2078.87 2102.39,2080.60 2099.12,2082.50 2095.78,2083.99 2092.20,2084.47"/>
    </edge>
    <edge id=":1138893014_1" function="internal">
        <lane id=":1138893014_1_0" index="0" allow="delivery bicycle pedestrian" speed="5.56" length="5.00" shape="2105.76,2078.87 2102.12,2079.83 2100.91,2079.54"/>
    </edge>
    <edge id=":1138893014_2" function="internal">
        <lane id=":1138893014_2_0" index="0" allow="delivery bicycle pedestrian" speed="3.65" length="2.22" shape="2105.76,2078.87 2104.34,2078.59 2103.75,2078.09"/>
    </edge>
    <edge id=":1138893014_9" function="internal">
        <lane id=":1138893014_9_0" index="0" allow="delivery bicycle pedestrian" speed="5.56" length="7.74" shape="2100.91,2079.54 2099.58,2079.22 2098.14,2077.04 2097.80,2073.30"/>
    </edge>
    <edge id=":1138893014_10" function="internal">
        <lane id=":1138893014_10_0" index="0" allow="delivery bicycle pedestrian" speed="3.65" length="2.45" shape="2103.75,2078.09 2103.66,2078.01 2103.73,2077.12 2104.53,2075.92"/>
    </edge>
    <edge id=":1138893014_3" function="internal">
        <lane id=":1138893014_3_0" index="0" allow="delivery bicycle pedestrian" speed="4.71" length="5.65" shape="2101.00,2073.45 2101.15,2075.11 2101.79,2076.07 2102.91,2076.34 2104.53,2075.92"/>
    </edge>
    <edge id=":1138893014_4" function="internal">
        <lane id=":1138893014_4_0" index="0" allow="delivery bicycle pedestrian" speed="5.56" length="16.00" shape="2101.00,2073.45 2100.25,2078.45 2098.53,2081.96 2095.85,2083.96 2092.20,2084.47"/>
    </edge>
    <edge id=":1138893014_5" function="internal">
        <lane id=":1138893014_5_0" index="0" allow="delivery bicycle pedestrian" speed="3.65" length="4.67" shape="2101.00,2073.45 2100.14,2074.61 2099.33,2074.97 2098.54,2074.53 2097.80,2073.30"/>
    </edge>
    <edge id=":1138893014_6" function="internal">
        <lane id=":1138893014_6_0" index="0" allow="delivery bicycle pedestrian" speed="5.56" length="11.96" shape="2090.87,2081.19 2093.76,2080.84 2095.88,2079.41 2097.23,2076.89 2097.80,2073.30"/>
    </edge>
    <edge id=":1138893014_7" function="internal">
        <lane id=":1138893014_7_0" index="0" allow="delivery bicycle pedestrian" speed="5.56" length="14.80" shape="2090.87,2081.19 2094.46,2080.76 2097.84,2079.38 2101.15,2077.59 2104.53,2075.92"/>
    </edge>
    <edge id=":1138893014_8" function="internal">
        <lane id=":1138893014_8_0" index="0" allow="delivery bicycle pedestrian" speed="3.78" length="3.15" shape="2090.87,2081.19 2092.43,2081.51 2093.18,2082.17 2093.13,2082.73"/>
    </edge>
    <edge id=":1138893014_11" function="internal">
        <lane id=":1138893014_11_0" index="0" allow="delivery bicycle pedestrian" speed="3.78" length="2.02" shape="2093.13,2082.73 2093.10,2083.15 2092.20,2084.47"/>
    </edge>
    <edge id=":1154407350_0" function="internal">
        <lane id=":1154407350_0_0" index="0" disallow="tram rail_urban rail rail_electric ship" speed="5.56" length="9.24" shape="1106.15,2350.80 1107.45,2353.08 1108.89,2354.25 1110.66,2355.18 1112.96,2356.72"/>
    </edge>
    <edge id=":1154407350_1" function="internal">
        <lane id=":1154407350_1_0" index="0" disallow="tram rail_urban rail rail_electric ship" speed="5.56" length="9.02" shape="1101.32,2360.46 1102.73,2358.17 1103.51,2356.01 1103.66,2353.96 1103.20,2352.04"/>
    </edge>
    <edge id=":1154407350_2" function="internal">
        <lane id=":1154407350_2_0" index="0" disallow="tram rail_urban rail rail_electric ship" speed="7.80" length="13.96" shape="1101.32,2360.46 1104.32,2357.12 1107.26,2355.39 1110.14,2355.25 1112.96,2356.72"/>
    </edge>
    <edge id=":1154480531_0" function="internal">
        <lane id=":1154480531_0_0" index="0" disallow="tram rail_urban rail rail_electric ship" speed="11.11" length="8.85" shape="1019.01,2397.78 1016.49,2398.02 1014.69,2397.41 1012.89,2396.76 1010.34,2396.90"/>
        <lane id=":1154480531_0_1" index="1" disallow="tram rail_urban rail rail_electric ship" speed="11.11" length="8.85" shape="1018.08,2394.72 1015.60,2394.95 1013.82,2394.33 1012.04,2393.67 1009.53,2393.81"/>
    </edge>
    <edge id=":1154480531_2" function="internal">
        <lane id=":1154480531_2_0" index="0" disallow="tram rail_urban rail rail_electric ship" speed="3.65" length="2.64" shape="1017.15,2391.66 1015.77,2391.24 1015.15,2390.59 1015.20,2390.29"/>
    </edge>
    <edge id=":1154480531_5" function="internal">
        <lane id=":1154480531_5_0" index="0" disallow="tram rail_urban rail rail_electric ship" speed="3.65" length="2.03" shape="1015.20,2390.29 1015.30,2389.71 1016.22,2388.59"/>
    </edge>
    <edge id=":1154480531_3" function="internal">
        <lane id=":1154480531_3_0" index="0" disallow="tram rail_urban rail rail_electric ship" speed="11.11" length="8.55" shape="1007.92,2387.61 1010.36,2387.49 1012.09,2388.17 1013.80,2388.81 1016.22,2388.59"/>
    </edge>
    <edge id=":1154480531_4" function="internal">
        <lane id=":1154480531_4_0" index="0" disallow="tram rail_urban rail rail_electric ship" speed="3.65" length="2.63" shape="1008.73,2390.71 1010.09,2391.18 1010.68,2391.86 1010.62,2392.14"/>
    </edge>
    <edge id=":1154480531_6" function="internal">
        <lane id=":1154480531_6_0" index="0" disallow="tram rail_urban rail rail_electric ship" speed="3.65" length="2.04" shape="1010.62,2392.14 1010.49,2392.73 1009.53,2393.81"/>
    </edge>
    <edge id=":1196627727_0" function="internal">
        <lane id=":1196627727_0_0" index="0" allow="delivery bicycle pedestrian" speed="3.65" length="4.67" shape="1641.07,1572.38 1640.41,1573.66 1639.66,1574.15 1638.82,1573.84 1637.89,1572.73"/>
    </edge>
    <edge id=":1196627732_0" function="internal">
        <lane id=":1196627732_0_0" index="0" allow="delivery bicycle pedestrian" speed="5.56" length="6.66" shape="1567.49,1693.97 1565.79,1692.97 1564.53,1692.35 1563.20,1692.10 1561.27,1692.21"/>
    </edge>
    <edge id=":1196627732_1" function="internal">
        <lane id=":1196627732_1_0" index="0" allow="delivery bicycle pedestrian" speed="5.56" length="10.15" shape="1567.49,1693.97 1565.29,1692.27 1564.16,1690.27 1564.10,1687.98 1565.12,1685.38"/>
    </edge>
    <edge id=":1196627732_2" function="internal">
        <lane id=":1196627732_2_0" index="0" allow="delivery bicycle pedestrian" speed="3.65" length="4.67" shape="1567.49,1693.97 1566.84,1692.68 1566.89,1691.79 1567.63,1691.29 1569.07,1691.18"/>
    </edge>
    <edge id=":1196627732_3" function="internal">
        <lane id=":1196627732_3_0" index="0" allow="delivery bicycle pedestrian" speed="5.04" length="5.00" shape="1567.90,1686.96 1567.40,1688.23 1567.43,1689.36 1567.99,1690.35 1569.07,1691.18"/>
    </edge>
    <edge id=":1196627732_4" function="internal">
        <lane id=":1196627732_4_0" index="0" allow="delivery bicycle pedestrian" speed="5.56" length="8.77" shape="1567.90,1686.96 1566.47,1689.09 1564.89,1690.67 1563.16,1691.71 1561.27,1692.21"/>
    </edge>
    <edge id=":1196627732_5" function="internal">
        <lane id=":1196627732_5_0" index="0" allow="delivery bicycle pedestrian" speed="3.65" length="4.67" shape="1567.90,1686.96 1566.62,1687.61 1565.72,1687.57 1565.22,1686.82 1565.12,1685.38"/>
    </edge>
    <edge id=":1196627732_6" function="internal">
        <lane id=":1196627732_6_0" index="0" allow="delivery bicycle pedestrian" speed="5.56" length="5.76" shape="1560.91,1689.03 1562.03,1688.70 1563.11,1687.98 1564.14,1686.88 1565.12,1685.38"/>
    </edge>
    <edge id=":1196627732_7" function="internal">
        <lane id=":1196627732_7_0" index="0" allow="delivery bicycle pedestrian" speed="5.56" length="8.70" shape="1560.91,1689.03 1563.44,1688.87 1565.19,1689.14 1566.84,1689.90 1569.07,1691.18"/>
    </edge>
    <edge id=":1196627732_8" function="internal">
        <lane id=":1196627732_8_0" index="0" allow="delivery bicycle pedestrian" speed="3.65" length="4.67" shape="1560.91,1689.03 1562.19,1689.68 1562.68,1690.43 1562.37,1691.27 1561.27,1692.21"/>
    </edge>
    <edge id=":1196627734_0" function="internal">
        <lane id=":1196627734_0_0" index="0" allow="delivery bicycle pedestrian" speed="3.65" length="4.67" shape="1671.79,1616.48 1671.31,1617.84 1670.63,1618.42 1669.75,1618.23 1668.69,1617.26"/>
    </edge>
    <edge id=":1196627741_0" function="internal">
        <lane id=":1196627741_0_0" index="0" allow="delivery bicycle pedestrian" speed="4.98" length="5.07" shape="1635.66,1552.51 1635.31,1551.16 1634.61,1550.26 1633.56,1549.84 1632.16,1549.87"/>
    </edge>
    <edge id=":1196627741_1" function="internal">
        <lane id=":1196627741_1_0" index="0" allow="delivery bicycle pedestrian" speed="5.56" length="10.09" shape="1635.66,1552.51 1635.72,1549.68 1636.57,1547.48 1638.22,1545.92 1640.68,1544.99"/>
    </edge>
    <edge id=":1196627741_2" function="internal">
        <lane id=":1196627741_2_0" index="0" allow="delivery bicycle pedestrian" speed="3.65" length="4.67" shape="1635.66,1552.51 1636.33,1551.23 1637.08,1550.75 1637.92,1551.06 1638.84,1552.16"/>
    </edge>
    <edge id=":1196627741_3" function="internal">
        <lane id=":1196627741_3_0" index="0" allow="delivery bicycle pedestrian" speed="5.34" length="5.30" shape="1641.35,1548.12 1640.11,1548.60 1639.28,1549.44 1638.86,1550.63 1638.84,1552.16"/>
    </edge>
    <edge id=":1196627741_4" function="internal">
        <lane id=":1196627741_4_0" index="0" allow="delivery bicycle pedestrian" speed="5.56" length="9.35" shape="1641.35,1548.12 1632.16,1549.87"/>
    </edge>
    <edge id=":1196627741_5" function="internal">
        <lane id=":1196627741_5_0" index="0" allow="delivery bicycle pedestrian" speed="3.65" length="4.67" shape="1641.35,1548.12 1640.01,1547.59 1639.45,1546.89 1639.67,1546.02 1640.68,1544.99"/>
    </edge>
    <edge id=":1196627741_6" function="internal">
        <lane id=":1196627741_6_0" index="0" allow="delivery bicycle pedestrian" speed="5.56" length="9.21" shape="1631.63,1546.72 1640.68,1544.99"/>
    </edge>
    <edge id=":1196627741_7" function="internal">
        <lane id=":1196627741_7_0" index="0" allow="delivery bicycle pedestrian" speed="5.56" length="10.45" shape="1631.63,1546.72 1634.51,1546.64 1636.68,1547.53 1638.12,1549.37 1638.84,1552.16"/>
    </edge>
    <edge id=":1196627741_8" function="internal">
        <lane id=":1196627741_8_0" index="0" allow="delivery bicycle pedestrian" speed="3.65" length="4.67" shape="1631.63,1546.72 1632.94,1547.30 1633.47,1548.03 1633.21,1548.88 1632.16,1549.87"/>
    </edge>
    <edge id=":1196627743_0" function="internal">
        <lane id=":1196627743_0_0" index="0" allow="delivery bicycle pedestrian" speed="3.65" length="4.67" shape="1543.50,1570.47 1544.04,1569.13 1544.75,1568.58 1545.61,1568.82 1546.63,1569.83"/>
    </edge>
    <edge id=":1196627746_0" function="internal">
        <lane id=":1196627746_0_0" index="0" allow="delivery bicycle pedestrian" speed="3.65" length="4.67" shape="1606.56,1737.72 1605.87,1738.98 1605.10,1739.45 1604.27,1739.12 1603.37,1737.99"/>
    </edge>
    <edge id=":1196627749_0" function="internal">
        <lane id=":1196627749_0_0" index="0" allow="delivery bicycle pedestrian" speed="5.30" length="4.77" shape="1543.88,1627.59 1542.66,1627.96 1541.77,1628.63 1541.22,1629.59 1541.00,1630.85"/>
    </edge>
    <edge id=":1196627749_1" function="internal">
        <lane id=":1196627749_1_0" index="0" allow="delivery bicycle pedestrian" speed="5.56" length="8.99" shape="1543.88,1627.59 1541.45,1627.68 1539.40,1627.10 1537.72,1625.84 1536.42,1623.91"/>
    </edge>
    <edge id=":1196627749_2" function="internal">
        <lane id=":1196627749_2_0" index="0" allow="delivery bicycle pedestrian" speed="3.65" length="4.67" shape="1543.88,1627.59 1542.56,1626.99 1542.04,1626.27 1542.30,1625.42 1543.36,1624.43"/>
    </edge>
    <edge id=":1196627749_3" function="internal">
        <lane id=":1196627749_3_0" index="0" allow="delivery bicycle pedestrian" speed="5.55" length="4.87" shape="1539.29,1622.49 1539.99,1623.52 1540.90,1624.18 1542.02,1624.49 1543.36,1624.43"/>
    </edge>
    <edge id=":1196627749_4" function="internal">
        <lane id=":1196627749_4_0" index="0" allow="delivery bicycle pedestrian" speed="5.56" length="8.68" shape="1539.29,1622.49 1540.37,1624.81 1540.91,1626.51 1541.07,1628.28 1541.00,1630.85"/>
    </edge>
    <edge id=":1196627749_5" function="internal">
        <lane id=":1196627749_5_0" index="0" allow="delivery bicycle pedestrian" speed="3.65" length="4.67" shape="1539.29,1622.49 1539.10,1623.92 1538.56,1624.64 1537.66,1624.63 1536.42,1623.91"/>
    </edge>
    <edge id=":1196627749_6" function="internal">
        <lane id=":1196627749_6_0" index="0" allow="delivery bicycle pedestrian" speed="5.56" length="7.08" shape="1537.80,1630.72 1537.86,1628.63 1537.74,1627.18 1537.30,1625.80 1536.42,1623.91"/>
    </edge>
    <edge id=":1196627749_7" function="internal">
        <lane id=":1196627749_7_0" index="0" allow="delivery bicycle pedestrian" speed="5.56" length="9.20" shape="1537.80,1630.72 1538.23,1628.30 1539.30,1626.44 1541.01,1625.15 1543.36,1624.43"/>
    </edge>
    <edge id=":1196627749_8" function="internal">
        <lane id=":1196627749_8_0" index="0" allow="delivery bicycle pedestrian" speed="3.65" length="4.67" shape="1537.80,1630.72 1538.65,1629.55 1539.46,1629.18 1540.25,1629.62 1541.00,1630.85"/>
    </edge>
    <edge id=":1196627751_0" function="internal">
        <lane id=":1196627751_0_0" index="0" allow="delivery bicycle pedestrian" speed="5.17" length="4.87" shape="1600.19,1563.84 1599.51,1562.71 1598.63,1562.02 1597.54,1561.78 1596.24,1561.98"/>
    </edge>
    <edge id=":1196627751_1" function="internal">
        <lane id=":1196627751_1_0" index="0" allow="delivery bicycle pedestrian" speed="5.56" length="8.42" shape="1600.19,1563.84 1599.43,1561.55 1599.17,1559.43 1599.40,1557.49 1600.12,1555.72"/>
    </edge>
    <edge id=":1196627751_2" function="internal">
        <lane id=":1196627751_2_0" index="0" allow="delivery bicycle pedestrian" speed="3.65" length="4.67" shape="1600.19,1563.84 1600.46,1562.42 1601.04,1561.74 1601.93,1561.80 1603.14,1562.59"/>
    </edge>
    <edge id=":1196627751_3" function="internal">
        <lane id=":1196627751_3_0" index="0" allow="delivery bicycle pedestrian" speed="5.56" length="5.46" shape="1602.89,1557.32 1602.48,1558.39 1602.38,1559.63 1602.60,1561.03 1603.14,1562.59"/>
    </edge>
    <edge id=":1196627751_4" function="internal">
        <lane id=":1196627751_4_0" index="0" allow="delivery bicycle pedestrian" speed="5.56" length="8.47" shape="1602.89,1557.32 1601.54,1559.36 1600.26,1560.53 1598.63,1561.25 1596.24,1561.98"/>
    </edge>
    <edge id=":1196627751_5" function="internal">
        <lane id=":1196627751_5_0" index="0" allow="delivery bicycle pedestrian" speed="3.65" length="4.67" shape="1602.89,1557.32 1601.60,1557.95 1600.71,1557.90 1600.22,1557.15 1600.12,1555.72"/>
    </edge>
    <edge id=":1196627751_6" function="internal">
        <lane id=":1196627751_6_0" index="0" allow="delivery bicycle pedestrian" speed="5.56" length="6.01" shape="1595.32,1558.91 1597.03,1558.41 1598.22,1557.94 1599.15,1557.15 1600.12,1555.72"/>
    </edge>
    <edge id=":1196627751_7" function="internal">
        <lane id=":1196627751_7_0" index="0" allow="delivery bicycle pedestrian" speed="5.56" length="9.63" shape="1595.32,1558.91 1597.89,1558.52 1600.05,1559.00 1601.80,1560.36 1603.14,1562.59"/>