<?xml version="1.0" encoding="UTF-8"?>

<!-- generated on 07/26/20 19:40:49 by Eclipse SUMO netconvert Version 1.2.0
<configuration xmlns:xsi="http://www.w3.org/2001/XMLSchema-instance" xsi:noNamespaceSchemaLocation="http://sumo.dlr.de/xsd/netconvertConfiguration.xsd">

    <input>
        <osm-files value="C:\Users\darkm\Documents\ut3.osm"/>
    </input>

    <output>
        <output-file value="mapNetconvert.net.xml"/>
    </output>

    <projection>
        <proj.utm value="true"/>
    </projection>

    <processing>
        <geometry.remove value="true"/>
        <roundabouts.guess value="true"/>
    </processing>

    <edge_removal>
        <remove-edges.by-type value="railway.rail,highway.service,highway.cycleway,highway.footway,highway.steps,highway.bridleway,highway.pedestrian,highway.stairs,railway.ford,highway.track,highway.bus_guideway,highway.services,highway.path,railway.tram,railway.subway,highway.step"/>
    </edge_removal>

    <junctions>
        <junctions.join value="true"/>
    </junctions>

</configuration>
-->

<net version="1.1" junctionCornerDetail="5" limitTurnSpeed="5.50" xmlns:xsi="http://www.w3.org/2001/XMLSchema-instance" xsi:noNamespaceSchemaLocation="http://sumo.dlr.de/xsd/net_file.xsd">

    <location netOffset="-476422.76,-5550677.62" convBoundary="0.00,0.00,1278.43,767.80" origBoundary="8.670278,50.107882,8.688122,50.114799" projParameter="+proj=utm +zone=32 +ellps=WGS84 +datum=WGS84 +units=m +no_defs"/>

    <type id="highway.bridleway" priority="1" numLanes="1" speed="2.78" allow="pedestrian" oneway="1" width="2.00"/>
    <type id="highway.bus_guideway" priority="1" numLanes="1" speed="27.78" allow="bus" oneway="1"/>
    <type id="highway.cycleway" priority="1" numLanes="1" speed="8.33" allow="bicycle" oneway="0" width="1.00"/>
    <type id="highway.footway" priority="1" numLanes="1" speed="2.78" allow="pedestrian" oneway="1" width="2.00"/>
    <type id="highway.ford" priority="1" numLanes="1" speed="2.78" allow="army" oneway="0"/>
    <type id="highway.living_street" priority="2" numLanes="1" speed="2.78" disallow="tram rail_urban rail rail_electric ship" oneway="0"/>
    <type id="highway.motorway" priority="14" numLanes="2" speed="39.44" allow="private emergency authority army vip passenger hov taxi bus coach delivery truck trailer motorcycle evehicle custom1 custom2" oneway="1"/>
    <type id="highway.motorway_link" priority="9" numLanes="1" speed="22.22" allow="private emergency authority army vip passenger hov taxi bus coach delivery truck trailer motorcycle evehicle custom1 custom2" oneway="1"/>
    <type id="highway.path" priority="1" numLanes="1" speed="2.78" allow="bicycle pedestrian" oneway="1" width="2.00"/>
    <type id="highway.pedestrian" priority="1" numLanes="1" speed="2.78" allow="pedestrian" oneway="1" width="2.00"/>
    <type id="highway.primary" priority="12" numLanes="2" speed="27.78" disallow="tram rail_urban rail rail_electric ship" oneway="0"/>
    <type id="highway.primary_link" priority="7" numLanes="1" speed="22.22" disallow="tram rail_urban rail rail_electric ship" oneway="0"/>
    <type id="highway.raceway" priority="15" numLanes="2" speed="83.33" allow="vip" oneway="0"/>
    <type id="highway.residential" priority="3" numLanes="1" speed="13.89" disallow="tram rail_urban rail rail_electric ship" oneway="0"/>
    <type id="highway.secondary" priority="11" numLanes="2" speed="27.78" disallow="tram rail_urban rail rail_electric ship" oneway="0"/>
    <type id="highway.secondary_link" priority="6" numLanes="1" speed="22.22" disallow="tram rail_urban rail rail_electric ship" oneway="0"/>
    <type id="highway.service" priority="1" numLanes="1" speed="5.56" allow="delivery bicycle pedestrian" oneway="0"/>
    <type id="highway.stairs" priority="1" numLanes="1" speed="1.39" allow="pedestrian" oneway="1" width="2.00"/>
    <type id="highway.step" priority="1" numLanes="1" speed="1.39" allow="pedestrian" oneway="1" width="2.00"/>
    <type id="highway.steps" priority="1" numLanes="1" speed="1.39" allow="pedestrian" oneway="1" width="2.00"/>
    <type id="highway.tertiary" priority="10" numLanes="1" speed="22.22" disallow="tram rail_urban rail rail_electric ship" oneway="0"/>
    <type id="highway.tertiary_link" priority="5" numLanes="1" speed="22.22" disallow="tram rail_urban rail rail_electric ship" oneway="0"/>
    <type id="highway.track" priority="1" numLanes="1" speed="5.56" disallow="tram rail_urban rail rail_electric ship" oneway="0"/>
    <type id="highway.trunk" priority="13" numLanes="2" speed="27.78" disallow="tram rail_urban rail rail_electric bicycle pedestrian ship" oneway="0"/>
    <type id="highway.trunk_link" priority="8" numLanes="1" speed="22.22" disallow="tram rail_urban rail rail_electric bicycle pedestrian ship" oneway="0"/>
    <type id="highway.unclassified" priority="4" numLanes="1" speed="13.89" disallow="tram rail_urban rail rail_electric ship" oneway="0"/>
    <type id="highway.unsurfaced" priority="1" numLanes="1" speed="8.33" disallow="tram rail_urban rail rail_electric ship" oneway="0"/>
    <type id="railway.light_rail" priority="19" numLanes="1" speed="27.78" allow="rail_urban" oneway="1"/>
    <type id="railway.preserved" priority="16" numLanes="1" speed="27.78" allow="rail" oneway="1"/>
    <type id="railway.rail" priority="20" numLanes="1" speed="83.33" allow="rail rail_electric" oneway="1"/>
    <type id="railway.subway" priority="18" numLanes="1" speed="27.78" allow="rail_urban" oneway="1"/>
    <type id="railway.tram" priority="17" numLanes="1" speed="13.89" allow="tram" oneway="1"/>

    <edge id=":1046609056_0" function="internal">
        <lane id=":1046609056_0_0" index="0" disallow="tram rail_urban rail rail_electric ship" speed="3.65" length="4.67" shape="1076.90,690.03 1075.79,689.11 1075.48,688.27 1075.96,687.52 1077.24,686.85"/>
    </edge>
    <edge id=":1144707956_0" function="internal">
        <lane id=":1144707956_0_0" index="0" disallow="tram rail_urban rail rail_electric ship" speed="27.78" length="8.16" shape="334.81,439.47 332.47,438.77 330.76,438.64 329.07,438.49 326.76,437.71"/>
        <lane id=":1144707956_0_1" index="1" disallow="tram rail_urban rail rail_electric ship" speed="27.78" length="8.16" shape="334.81,439.47 332.69,438.32 331.43,437.19 330.18,436.03 328.09,434.80"/>
        <lane id=":1144707956_0_2" index="2" disallow="tram rail_urban rail rail_electric ship" speed="27.78" length="8.16" shape="336.04,436.52 333.95,435.38 332.71,434.25 331.48,433.10 329.43,431.89"/>
        <lane id=":1144707956_0_3" index="3" disallow="tram rail_urban rail rail_electric ship" speed="27.78" length="8.16" shape="337.26,433.56 335.20,432.44 333.99,431.32 332.78,430.18 330.76,428.98"/>
    </edge>
    <edge id=":1426837323_0" function="internal">
        <lane id=":1426837323_0_0" index="0" disallow="tram rail_urban rail rail_electric ship" speed="13.89" length="0.31" shape="1145.56,179.78 1145.25,179.75"/>
    </edge>
    <edge id=":1426837323_1" function="internal">
        <lane id=":1426837323_1_0" index="0" disallow="tram rail_urban rail rail_electric ship" speed="13.89" length="0.24" shape="1145.61,176.57 1145.85,176.59"/>
    </edge>
    <edge id=":1561456758_0" function="internal">
        <lane id=":1561456758_0_0" index="0" disallow="tram rail_urban rail rail_electric ship" speed="13.89" length="0.97" shape="42.24,301.30 41.96,301.38 41.78,301.46 41.62,301.58 41.42,301.79"/>
    </edge>
    <edge id=":162639_0" function="internal">
        <lane id=":162639_0_0" index="0" disallow="tram rail_urban rail rail_electric ship" speed="8.99" length="11.90" shape="660.65,496.02 661.35,499.79 662.47,502.72 664.03,504.78 666.03,505.99"/>
    </edge>
    <edge id=":162639_1" function="internal">
        <lane id=":162639_1_0" index="0" disallow="tram rail_urban rail rail_electric ship" speed="6.27" length="4.27" shape="660.65,496.02 660.55,499.48 660.11,500.15"/>
    </edge>
    <edge id=":162639_2" function="internal">
        <lane id=":162639_2_0" index="0" disallow="tram rail_urban rail rail_electric ship" speed="3.68" length="2.55" shape="660.65,496.02 660.27,497.44 659.63,498.09 659.47,498.07"/>
    </edge>
    <edge id=":162639_6" function="internal">
        <lane id=":162639_6_0" index="0" disallow="tram rail_urban rail rail_electric ship" speed="6.27" length="7.68" shape="660.11,500.15 659.30,501.37 656.89,501.68 653.31,500.41"/>
    </edge>
    <edge id=":162639_7" function="internal">
        <lane id=":162639_7_0" index="0" disallow="tram rail_urban rail rail_electric ship" speed="3.68" length="2.24" shape="659.47,498.07 658.72,497.97 657.55,497.07"/>
    </edge>
    <edge id=":162639_3" function="internal">
        <lane id=":162639_3_0" index="0" disallow="tram rail_urban rail rail_electric ship" speed="8.41" length="12.12" shape="660.88,508.96 660.67,506.76 659.34,504.60 656.89,502.48 653.31,500.41"/>
    </edge>
    <edge id=":162639_4" function="internal">
        <lane id=":162639_4_0" index="0" disallow="tram rail_urban rail rail_electric ship" speed="13.89" length="12.50" shape="660.88,508.96 660.77,505.72 659.72,503.02 658.42,500.33 657.55,497.07"/>
    </edge>
    <edge id=":162639_5" function="internal">
        <lane id=":162639_5_0" index="0" disallow="tram rail_urban rail rail_electric ship" speed="5.53" length="3.85" shape="660.88,508.96 661.47,507.07 662.52,505.95 662.85,505.87"/>
    </edge>
    <edge id=":162639_8" function="internal">
        <lane id=":162639_8_0" index="0" disallow="tram rail_urban rail rail_electric ship" speed="5.53" length="3.25" shape="662.85,505.87 664.04,505.59 666.03,505.99"/>
    </edge>
    <edge id=":162640_0" function="internal">
        <lane id=":162640_0_0" index="0" disallow="tram rail_urban rail rail_electric ship" speed="3.65" length="4.67" shape="793.54,181.21 794.40,182.36 794.51,183.25 793.86,183.87 792.46,184.22"/>
    </edge>
    <edge id=":162641_0" function="internal">
        <lane id=":162641_0_0" index="0" disallow="tram rail_urban rail rail_electric ship" speed="6.51" length="8.74" shape="699.18,150.99 696.84,150.55 694.89,150.95 693.33,152.19 692.17,154.26"/>
    </edge>
    <edge id=":162641_1" function="internal">
        <lane id=":162641_1_0" index="0" disallow="tram rail_urban rail rail_electric ship" speed="8.33" length="14.00" shape="699.18,150.99 696.02,149.41 693.50,147.18 691.34,144.48 689.29,141.46"/>
    </edge>
    <edge id=":162641_2" function="internal">
        <lane id=":162641_2_0" index="0" disallow="tram rail_urban rail rail_electric ship" speed="3.65" length="4.67" shape="699.18,150.99 698.30,149.85 698.17,148.96 698.81,148.33 700.20,147.96"/>
    </edge>
    <edge id=":162641_3" function="internal">
        <lane id=":162641_3_0" index="0" disallow="tram rail_urban rail rail_electric ship" speed="8.33" length="12.08" shape="689.18,153.10 690.28,149.58 690.66,146.46 690.33,143.76 689.29,141.46"/>
    </edge>
    <edge id=":162641_4" function="internal">
        <lane id=":162641_4_0" index="0" disallow="tram rail_urban rail rail_electric ship" speed="8.01" length="13.73" shape="689.18,153.10 691.02,149.84 693.46,147.90 696.53,147.27 700.20,147.96"/>
    </edge>
    <edge id=":162641_5" function="internal">
        <lane id=":162641_5_0" index="0" disallow="tram rail_urban rail rail_electric ship" speed="3.65" length="4.67" shape="689.18,153.10 690.37,152.27 691.26,152.19 691.86,152.85 692.17,154.26"/>
    </edge>
    <edge id=":162642_0" function="internal">
        <lane id=":162642_0_0" index="0" disallow="tram rail_urban rail rail_electric ship" speed="6.27" length="3.80" shape="522.13,90.74 521.27,90.97 520.48,91.40 519.77,92.04 519.13,92.88"/>
    </edge>
    <edge id=":162642_1" function="internal">
        <lane id=":162642_1_0" index="0" disallow="tram rail_urban rail rail_electric ship" speed="3.65" length="4.67" shape="516.43,91.17 517.75,90.58 518.64,90.68 519.10,91.44 519.13,92.88"/>
    </edge>
    <edge id=":1758363257_0" function="internal">
        <lane id=":1758363257_0_0" index="0" disallow="tram rail_urban rail rail_electric ship" speed="3.65" length="4.67" shape="1278.15,643.08 1279.47,643.66 1280.00,644.38 1279.75,645.24 1278.70,646.23"/>
    </edge>
    <edge id=":1773964648_0" function="internal">
        <lane id=":1773964648_0_0" index="0" disallow="tram rail_urban rail rail_electric ship" speed="13.89" length="0.34" shape="744.91,309.93 744.60,309.79"/>
    </edge>
    <edge id=":1773964648_1" function="internal">
        <lane id=":1773964648_1_0" index="0" disallow="tram rail_urban rail rail_electric ship" speed="13.89" length="0.11" shape="746.00,306.92 746.10,306.96"/>
    </edge>
    <edge id=":18404636_0" function="internal">
        <lane id=":18404636_0_0" index="0" disallow="tram rail_urban rail rail_electric ship" speed="3.91" length="2.49" shape="1070.17,170.87 1069.50,170.88 1068.98,171.11 1068.61,171.54 1068.41,172.19"/>
    </edge>
    <edge id=":18404636_1" function="internal">
        <lane id=":18404636_1_0" index="0" disallow="tram rail_urban rail rail_electric ship" speed="6.08" length="7.46" shape="1065.25,171.65 1065.87,169.71 1066.96,168.41 1068.52,167.74 1070.55,167.69"/>
    </edge>
    <edge id=":1851660076_0" function="internal">
        <lane id=":1851660076_0_0" index="0" disallow="tram rail_urban rail rail_electric ship" speed="3.65" length="4.67" shape="358.17,320.59 359.50,320.02 360.38,320.12 360.84,320.90 360.85,322.34"/>
    </edge>
    <edge id=":1851660154_0" function="internal">
        <lane id=":1851660154_0_0" index="0" disallow="tram rail_urban rail rail_electric ship" speed="27.78" length="8.13" shape="306.09,422.41 303.83,421.56 302.16,421.32 300.49,421.05 298.28,420.14"/>
        <lane id=":1851660154_0_1" index="1" disallow="tram rail_urban rail rail_electric ship" speed="27.78" length="8.13" shape="307.52,419.55 305.30,418.71 303.64,418.48 301.99,418.23 299.81,417.32"/>
    </edge>
    <edge id=":1851742837_0" function="internal">
        <lane id=":1851742837_0_0" index="0" disallow="tram rail_urban rail rail_electric ship" speed="27.78" length="7.99" shape="391.34,463.66 389.27,462.67 387.68,462.37 386.07,462.10 383.93,461.24"/>
        <lane id=":1851742837_0_1" index="1" disallow="tram rail_urban rail rail_electric ship" speed="27.78" length="7.99" shape="391.34,463.66 389.49,462.22 388.44,460.95 387.36,459.72 385.44,458.41"/>
        <lane id=":1851742837_0_2" index="2" disallow="tram rail_urban rail rail_electric ship" speed="27.78" length="7.99" shape="393.03,460.94 391.13,459.47 390.03,458.18 388.92,456.93 386.94,455.59"/>
    </edge>
    <edge id=":1851928723_0" function="internal">
        <lane id=":1851928723_0_0" index="0" disallow="tram rail_urban rail rail_electric ship" speed="11.11" length="0.10" shape="1122.29,348.89 1122.29,348.89"/>
    </edge>
    <edge id=":1852182490_0" function="internal">
        <lane id=":1852182490_0_0" index="0" disallow="tram rail_urban rail rail_electric ship" speed="8.33" length="0.10" shape="1120.15,473.90 1120.15,473.90"/>
    </edge>
    <edge id=":1852182493_0" function="internal">
        <lane id=":1852182493_0_0" index="0" disallow="tram rail_urban rail rail_electric ship" speed="8.33" length="6.36" shape="1119.01,479.35 1118.87,481.23 1118.80,482.53 1118.86,483.82 1119.13,485.68"/>
    </edge>
    <edge id=":1852182493_1" function="internal">
        <lane id=":1852182493_1_0" index="0" disallow="tram rail_urban rail rail_electric ship" speed="4.75" length="5.56" shape="1119.01,479.35 1118.68,480.92 1117.95,481.82 1116.80,482.02 1115.24,481.54"/>
    </edge>
    <edge id=":1852665783_0" function="internal">
        <lane id=":1852665783_0_0" index="0" disallow="tram rail_urban rail rail_electric ship" speed="13.89" length="15.68" shape="340.46,102.22 339.00,107.03 338.28,110.80 337.92,114.12 337.56,117.57"/>
    </edge>
    <edge id=":1852665783_1" function="internal">
        <lane id=":1852665783_1_0" index="0" disallow="tram rail_urban rail rail_electric ship" speed="13.89" length="15.97" shape="337.45,101.15 336.11,105.68 335.55,108.89 334.99,112.10 333.65,116.63"/>
        <lane id=":1852665783_1_1" index="1" disallow="tram rail_urban rail rail_electric ship" speed="13.89" length="15.97" shape="334.43,100.08 333.09,104.61 332.53,107.82 331.98,111.03 330.63,115.56"/>
    </edge>
    <edge id=":1852665898_0" function="internal">
        <lane id=":1852665898_0_0" index="0" disallow="tram rail_urban rail rail_electric ship" speed="13.89" length="8.13" shape="376.31,152.86 378.67,153.12 380.33,152.90 381.99,152.65 384.36,152.82"/>
        <lane id=":1852665898_0_1" index="1" disallow="tram rail_urban rail rail_electric ship" speed="13.89" length="8.13" shape="376.31,152.86 378.59,153.61 380.05,154.47 381.51,155.31 383.81,155.97"/>
    </edge>
    <edge id=":1852665901_0" function="internal">
        <lane id=":1852665901_0_0" index="0" disallow="tram rail_urban rail rail_electric ship" speed="14.91" length="3.52" shape="361.06,157.51 360.03,157.39 359.31,157.37 358.59,157.46 357.58,157.68"/>
    </edge>
    <edge id=":1852665901_1" function="internal">
        <lane id=":1852665901_1_0" index="0" disallow="tram rail_urban rail rail_electric ship" speed="22.22" length="3.59" shape="361.06,157.51 360.00,157.38 359.28,157.31 358.55,157.26 357.48,157.23"/>
    </edge>
    <edge id=":1852665902_0" function="internal">
        <lane id=":1852665902_0_0" index="0" disallow="tram rail_urban rail rail_electric ship" speed="22.22" length="0.34" shape="350.39,157.00 350.29,156.99 350.22,157.00 350.15,157.00 350.05,157.02"/>
    </edge>
    <edge id=":1852665928_0" function="internal">
        <lane id=":1852665928_0_0" index="0" disallow="tram rail_urban rail rail_electric ship" speed="16.23" length="10.86" shape="319.65,165.74 317.03,167.37 315.19,168.69 313.65,170.38 311.94,173.12"/>
    </edge>
    <edge id=":1852665928_1" function="internal">
        <lane id=":1852665928_1_0" index="0" disallow="tram rail_urban rail rail_electric ship" speed="13.89" length="11.47" shape="315.91,162.26 314.10,165.14 312.56,166.92 311.01,168.70 309.15,171.55"/>
        <lane id=":1852665928_1_1" index="1" disallow="tram rail_urban rail rail_electric ship" speed="13.89" length="11.47" shape="313.09,160.74 311.29,163.61 309.75,165.38 308.21,167.15 306.36,169.99"/>
        <lane id=":1852665928_1_2" index="2" disallow="tram rail_urban rail rail_electric ship" speed="13.89" length="11.47" shape="310.28,159.22 308.48,162.07 306.95,163.84 305.41,165.60 303.57,168.43"/>
    </edge>
    <edge id=":1852774849_0" function="internal">
        <lane id=":1852774849_0_0" index="0" disallow="tram rail_urban rail rail_electric ship" speed="13.89" length="8.91" shape="104.61,620.26 102.11,620.66 100.28,620.16 98.43,619.61 95.90,619.90"/>
    </edge>
    <edge id=":1852774849_1" function="internal">
        <lane id=":1852774849_1_0" index="0" disallow="tram rail_urban rail rail_electric ship" speed="13.89" length="8.56" shape="92.96,610.76 95.37,610.51 97.12,611.09 98.86,611.63 101.23,611.27"/>
        <lane id=":1852774849_1_1" index="1" disallow="tram rail_urban rail rail_electric ship" speed="13.89" length="8.56" shape="93.94,613.81 96.39,613.55 98.17,614.11 99.94,614.64 102.36,614.27"/>
    </edge>
    <edge id=":1852774871_0" function="internal">
        <lane id=":1852774871_0_0" index="0" disallow="tram rail_urban rail rail_electric ship" speed="3.65" length="4.67" shape="4.67,649.54 3.27,649.20 2.62,648.59 2.72,647.70 3.57,646.54"/>
    </edge>
    <edge id=":1854321120_0" function="internal">
        <lane id=":1854321120_0_0" index="0" disallow="tram rail_urban rail rail_electric ship" speed="13.89" length="0.32" shape="1137.39,504.25 1137.06,504.20"/>
        <lane id=":1854321120_0_1" index="1" disallow="tram rail_urban rail rail_electric ship" speed="13.89" length="0.32" shape="1137.83,501.08 1137.53,501.04"/>
    </edge>
    <edge id=":1854321120_2" function="internal">
        <lane id=":1854321120_2_0" index="0" disallow="tram rail_urban rail rail_electric ship" speed="13.89" length="0.27" shape="1138.47,494.71 1138.72,494.74"/>
        <lane id=":1854321120_2_1" index="1" disallow="tram rail_urban rail rail_electric ship" speed="13.89" length="0.27" shape="1138.00,497.87 1138.28,497.91"/>
    </edge>
    <edge id=":1854475976_0" function="internal">
        <lane id=":1854475976_0_0" index="0" disallow="tram rail_urban rail rail_electric ship" speed="5.56" length="9.97" shape="621.58,111.07 619.14,111.12 617.11,112.03 615.48,113.80 614.27,116.43"/>
    </edge>
    <edge id=":1854475976_1" function="internal">
        <lane id=":1854475976_1_0" index="0" disallow="tram rail_urban rail rail_electric ship" speed="8.33" length="14.49" shape="621.58,111.07 607.25,108.95"/>
    </edge>
    <edge id=":1854475976_2" function="internal">
        <lane id=":1854475976_2_0" index="0" disallow="tram rail_urban rail rail_electric ship" speed="5.56" length="9.05" shape="611.23,115.43 611.67,112.92 611.16,111.01 609.68,109.68 607.25,108.95"/>
    </edge>
    <edge id=":1854475976_3" function="internal">
        <lane id=":1854475976_3_0" index="0" disallow="tram rail_urban rail rail_electric ship" speed="2.78" length="4.67" shape="611.23,115.43 612.36,114.54 613.25,114.41 613.88,115.04 614.27,116.43"/>
    </edge>
    <edge id=":1854476486_0" function="internal">
        <lane id=":1854476486_0_0" index="0" disallow="tram rail_urban rail rail_electric ship" speed="3.65" length="1.14" shape="174.44,510.92 173.40,511.39"/>
    </edge>
    <edge id=":1854476486_2" function="internal">
        <lane id=":1854476486_2_0" index="0" disallow="tram rail_urban rail rail_electric ship" speed="3.65" length="3.53" shape="173.40,511.39 173.13,511.52 172.24,511.43 171.77,510.67 171.73,509.22"/>
    </edge>
    <edge id=":1854476486_1" function="internal">
        <lane id=":1854476486_1_0" index="0" disallow="tram rail_urban rail rail_electric ship" speed="13.89" length="3.50" shape="171.56,512.60 171.82,511.66 171.63,510.90 171.45,510.15 171.73,509.22"/>
    </edge>
    <edge id=":1854809306_0" function="internal">
        <lane id=":1854809306_0_0" index="0" disallow="tram rail_urban rail rail_electric ship" speed="3.65" length="4.67" shape="1223.74,605.76 1224.58,604.59 1225.40,604.22 1226.18,604.64 1226.94,605.87"/>
    </edge>
    <edge id=":1932851184_0" function="internal">
        <lane id=":1932851184_0_0" index="0" disallow="tram rail_urban rail rail_electric ship" speed="13.89" length="8.19" shape="1254.68,621.28 1254.44,618.88 1253.91,617.27 1253.39,615.66 1253.20,613.26"/>
        <lane id=":1932851184_0_1" index="1" disallow="tram rail_urban rail rail_electric ship" speed="13.89" length="8.19" shape="1254.68,621.28 1254.94,618.90 1255.51,617.31 1256.09,615.72 1256.40,613.34"/>
    </edge>
    <edge id=":20640390_0" function="internal">
        <lane id=":20640390_0_0" index="0" disallow="tram rail_urban rail rail_electric ship" speed="3.90" length="2.68" shape="1267.78,759.22 1267.83,759.96 1268.11,760.49 1268.62,760.81 1269.35,760.93"/>
    </edge>
    <edge id=":20640398_0" function="internal">
        <lane id=":20640398_0_0" index="0" disallow="tram rail_urban rail rail_electric ship" speed="7.29" length="10.10" shape="1277.44,646.45 1274.59,647.28 1272.56,648.64 1271.35,650.53 1270.95,652.94"/>
    </edge>
    <edge id=":20640398_1" function="internal">
        <lane id=":20640398_1_0" index="0" disallow="tram rail_urban rail rail_electric ship" speed="3.65" length="4.67" shape="1277.44,646.45 1276.13,645.87 1275.59,645.15 1275.85,644.29 1276.89,643.30"/>
    </edge>
    <edge id=":20640398_2" function="internal">
        <lane id=":20640398_2_0" index="0" disallow="tram rail_urban rail rail_electric ship" speed="6.09" length="9.06" shape="1271.26,638.34 1271.51,640.90 1272.53,642.57 1274.33,643.37 1276.89,643.30"/>
    </edge>
    <edge id=":20640398_3" function="internal">
        <lane id=":20640398_3_0" index="0" disallow="tram rail_urban rail rail_electric ship" speed="11.11" length="14.60" shape="1271.26,638.34 1270.95,652.94"/>
    </edge>
    <edge id=":2495222644_0" function="internal">
        <lane id=":2495222644_0_0" index="0" disallow="tram rail_urban rail rail_electric ship" speed="3.65" length="4.67" shape="1248.67,10.40 1249.48,9.21 1250.29,8.82 1251.08,9.23 1251.86,10.44"/>
    </edge>
    <edge id=":2543810869_0" function="internal">
        <lane id=":2543810869_0_0" index="0" disallow="tram rail_urban rail rail_electric ship" speed="13.89" length="0.33" shape="97.96,47.26 97.67,47.12"/>
    </edge>
    <edge id=":2543810869_1" function="internal">
        <lane id=":2543810869_1_0" index="0" disallow="tram rail_urban rail rail_electric ship" speed="13.89" length="0.18" shape="98.83,44.13 99.00,44.19"/>
    </edge>
    <edge id=":2543810910_0" function="internal">
        <lane id=":2543810910_0_0" index="0" disallow="tram rail_urban rail rail_electric ship" speed="8.57" length="4.46" shape="165.59,61.45 166.76,60.85 167.53,60.34 168.13,59.66 168.78,58.53"/>
    </edge>
    <edge id=":2543810910_1" function="internal">
        <lane id=":2543810910_1_0" index="0" disallow="tram rail_urban rail rail_electric ship" speed="13.89" length="8.49" shape="164.30,65.60 168.78,58.53"/>
        <lane id=":2543810910_1_1" index="1" disallow="tram rail_urban rail rail_electric ship" speed="13.89" length="8.49" shape="167.02,67.29 171.61,60.02"/>
    </edge>
    <edge id=":2543810915_0" function="internal">
        <lane id=":2543810915_0_0" index="0" disallow="tram rail_urban rail rail_electric ship" speed="13.89" length="0.23" shape="145.26,59.86 145.48,59.93"/>
    </edge>
    <edge id=":2543810971_0" function="internal">
        <lane id=":2543810971_0_0" index="0" disallow="tram rail_urban rail rail_electric ship" speed="7.36" length="10.54" shape="154.76,62.39 157.20,61.98 159.10,60.67 160.46,58.48 161.27,55.40"/>
    </edge>
    <edge id=":2543810971_1" function="internal">
        <lane id=":2543810971_1_0" index="0" disallow="tram rail_urban rail rail_electric ship" speed="13.89" length="10.88" shape="154.76,62.39 157.91,62.60 160.29,62.84 162.57,62.64 165.41,61.54"/>
    </edge>
    <edge id=":2543810971_2" function="internal">
        <lane id=":2543810971_2_0" index="0" disallow="tram rail_urban rail rail_electric ship" speed="13.89" length="12.40" shape="159.00,67.60 161.27,55.40"/>
        <lane id=":2543810971_2_1" index="1" disallow="tram rail_urban rail rail_electric ship" speed="13.89" length="12.40" shape="162.14,68.21 164.41,56.02"/>
    </edge>
    <edge id=":2543810971_4" function="internal">
        <lane id=":2543810971_4_0" index="0" disallow="tram rail_urban rail rail_electric ship" speed="8.33" length="7.62" shape="162.14,68.21 162.76,65.71 163.51,63.76 164.39,62.37 165.41,61.54"/>
    </edge>
    <edge id=":2543811039_0" function="internal">
        <lane id=":2543811039_0_0" index="0" disallow="tram rail_urban rail rail_electric ship" speed="13.89" length="5.86" shape="153.93,79.33 154.86,77.87 155.74,77.01 156.54,76.11 157.22,74.56"/>
    </edge>
    <edge id=":2543811039_1" function="internal">
        <lane id=":2543811039_1_0" index="0" disallow="tram rail_urban rail rail_electric ship" speed="13.89" length="6.25" shape="156.84,80.66 157.82,79.10 158.74,78.16 159.57,77.18 160.27,75.51"/>
    </edge>
    <edge id=":2543811039_2" function="internal">
        <lane id=":2543811039_2_0" index="0" disallow="tram rail_urban rail rail_electric ship" speed="13.89" length="6.23" shape="156.84,80.66 157.40,78.99 157.49,77.72 157.63,76.49 158.37,74.92"/>
        <lane id=":2543811039_2_1" index="1" disallow="tram rail_urban rail rail_electric ship" speed="13.89" length="6.23" shape="159.73,82.04 160.35,80.24 160.50,78.90 160.72,77.59 161.53,75.90"/>
    </edge>
    <edge id=":2543811063_0" function="internal">
        <lane id=":2543811063_0_0" index="0" disallow="tram rail_urban rail rail_electric ship" speed="6.21" length="6.39" shape="150.54,83.06 151.34,81.30 151.61,79.72 151.34,78.34 150.54,77.13"/>
    </edge>
    <edge id=":2543811063_1" function="internal">
        <lane id=":2543811063_1_0" index="0" disallow="tram rail_urban rail rail_electric ship" speed="13.89" length="5.56" shape="153.31,84.66 153.78,83.24 153.65,82.12 153.48,80.99 153.85,79.51"/>
        <lane id=":2543811063_1_1" index="1" disallow="tram rail_urban rail rail_electric ship" speed="13.89" length="5.56" shape="156.08,86.26 156.60,84.76 156.49,83.59 156.35,82.40 156.76,80.84"/>
        <lane id=":2543811063_1_2" index="2" disallow="tram rail_urban rail rail_electric ship" speed="13.89" length="5.56" shape="158.85,87.86 159.40,86.30 159.32,85.08 159.20,83.84 159.65,82.22"/>
    </edge>
    <edge id=":2543811147_0" function="internal">
        <lane id=":2543811147_0_0" index="0" disallow="tram rail_urban rail rail_electric ship" speed="15.00" length="8.69" shape="329.09,130.34 328.43,132.82 328.19,134.58 328.33,136.35 328.80,138.87"/>
    </edge>
    <edge id=":2543811147_1" function="internal">
        <lane id=":2543811147_1_0" index="0" disallow="tram rail_urban rail rail_electric ship" speed="13.89" length="4.55" shape="329.09,130.34 328.73,131.68 328.50,132.61 328.20,133.51 327.64,134.78"/>
        <lane id=":2543811147_1_1" index="1" disallow="tram rail_urban rail rail_electric ship" speed="13.89" length="4.55" shape="326.02,129.46 325.68,130.72 325.45,131.59 325.17,132.44 324.64,133.64"/>
    </edge>
    <edge id=":2543811175_0" function="internal">
        <lane id=":2543811175_0_0" index="0" disallow="tram rail_urban rail rail_electric ship" speed="13.89" length="7.38" shape="327.56,134.96 326.86,137.03 326.74,138.58 326.62,140.12 325.92,142.18"/>
        <lane id=":2543811175_0_1" index="1" disallow="tram rail_urban rail rail_electric ship" speed="13.89" length="7.38" shape="327.56,134.96 326.41,136.82 325.29,137.89 324.18,138.96 323.02,140.81"/>