<?xml version="1.0" encoding="UTF-8"?>

<!-- generated on 07/18/20 18:58:53 by Eclipse SUMO netconvert Version 1.2.0
<configuration xmlns:xsi="http://www.w3.org/2001/XMLSchema-instance" xsi:noNamespaceSchemaLocation="http://sumo.dlr.de/xsd/netconvertConfiguration.xsd">

    <input>
        <osm-files value="C:\Users\darkm\Documents\gtgt.osm"/>
    </input>

    <output>
        <output-file value="mapNetconvert.net.xml"/>
    </output>

    <projection>
        <proj.utm value="true"/>
    </projection>

    <processing>
        <geometry.remove value="true"/>
        <roundabouts.guess value="true"/>
    </processing>

    <junctions>
        <junctions.join value="true"/>
    </junctions>

</configuration>
-->

<net version="1.1" junctionCornerDetail="5" limitTurnSpeed="5.50" xmlns:xsi="http://www.w3.org/2001/XMLSchema-instance" xsi:noNamespaceSchemaLocation="http://sumo.dlr.de/xsd/net_file.xsd">

    <location netOffset="-475569.26,-5549326.04" convBoundary="0.00,0.00,5209.40,2445.93" origBoundary="8.611691,50.088670,8.731139,50.117881" projParameter="+proj=utm +zone=32 +ellps=WGS84 +datum=WGS84 +units=m +no_defs"/>

    <type id="highway.bridleway" priority="1" numLanes="1" speed="2.78" allow="pedestrian" oneway="1" width="2.00"/>
    <type id="highway.bus_guideway" priority="1" numLanes="1" speed="27.78" allow="bus" oneway="1"/>
    <type id="highway.cycleway" priority="1" numLanes="1" speed="8.33" allow="bicycle" oneway="0" width="1.00"/>
    <type id="highway.footway" priority="1" numLanes="1" speed="2.78" allow="pedestrian" oneway="1" width="2.00"/>
    <type id="highway.ford" priority="1" numLanes="1" speed="2.78" allow="army" oneway="0"/>
    <type id="highway.living_street" priority="2" numLanes="1" speed="2.78" disallow="tram rail_urban rail rail_electric ship" oneway="0"/>
    <type id="highway.motorway" priority="14" numLanes="2" speed="39.44" allow="private emergency authority army vip passenger hov taxi bus coach delivery truck trailer motorcycle evehicle custom1 custom2" oneway="1"/>
    <type id="highway.motorway_link" priority="9" numLanes="1" speed="22.22" allow="private emergency authority army vip passenger hov taxi bus coach delivery truck trailer motorcycle evehicle custom1 custom2" oneway="1"/>
    <type id="highway.path" priority="1" numLanes="1" speed="2.78" allow="bicycle pedestrian" oneway="1" width="2.00"/>
    <type id="highway.pedestrian" priority="1" numLanes="1" speed="2.78" allow="pedestrian" oneway="1" width="2.00"/>
    <type id="highway.primary" priority="12" numLanes="2" speed="27.78" disallow="tram rail_urban rail rail_electric ship" oneway="0"/>
    <type id="highway.primary_link" priority="7" numLanes="1" speed="22.22" disallow="tram rail_urban rail rail_electric ship" oneway="0"/>
    <type id="highway.raceway" priority="15" numLanes="2" speed="83.33" allow="vip" oneway="0"/>
    <type id="highway.residential" priority="3" numLanes="1" speed="13.89" disallow="tram rail_urban rail rail_electric ship" oneway="0"/>
    <type id="highway.secondary" priority="11" numLanes="2" speed="27.78" disallow="tram rail_urban rail rail_electric ship" oneway="0"/>
    <type id="highway.secondary_link" priority="6" numLanes="1" speed="22.22" disallow="tram rail_urban rail rail_electric ship" oneway="0"/>
    <type id="highway.service" priority="1" numLanes="1" speed="5.56" allow="delivery bicycle pedestrian" oneway="0"/>
    <type id="highway.stairs" priority="1" numLanes="1" speed="1.39" allow="pedestrian" oneway="1" width="2.00"/>
    <type id="highway.step" priority="1" numLanes="1" speed="1.39" allow="pedestrian" oneway="1" width="2.00"/>
    <type id="highway.steps" priority="1" numLanes="1" speed="1.39" allow="pedestrian" oneway="1" width="2.00"/>
    <type id="highway.tertiary" priority="10" numLanes="1" speed="22.22" disallow="tram rail_urban rail rail_electric ship" oneway="0"/>
    <type id="highway.tertiary_link" priority="5" numLanes="1" speed="22.22" disallow="tram rail_urban rail rail_electric ship" oneway="0"/>
    <type id="highway.track" priority="1" numLanes="1" speed="5.56" disallow="tram rail_urban rail rail_electric ship" oneway="0"/>
    <type id="highway.trunk" priority="13" numLanes="2" speed="27.78" disallow="tram rail_urban rail rail_electric bicycle pedestrian ship" oneway="0"/>
    <type id="highway.trunk_link" priority="8" numLanes="1" speed="22.22" disallow="tram rail_urban rail rail_electric bicycle pedestrian ship" oneway="0"/>
    <type id="highway.unclassified" priority="4" numLanes="1" speed="13.89" disallow="tram rail_urban rail rail_electric ship" oneway="0"/>
    <type id="highway.unsurfaced" priority="1" numLanes="1" speed="8.33" disallow="tram rail_urban rail rail_electric ship" oneway="0"/>
    <type id="railway.light_rail" priority="19" numLanes="1" speed="27.78" allow="rail_urban" oneway="1"/>
    <type id="railway.preserved" priority="16" numLanes="1" speed="27.78" allow="rail" oneway="1"/>
    <type id="railway.rail" priority="20" numLanes="1" speed="83.33" allow="rail rail_electric" oneway="1"/>
    <type id="railway.subway" priority="18" numLanes="1" speed="27.78" allow="rail_urban" oneway="1"/>
    <type id="railway.tram" priority="17" numLanes="1" speed="13.89" allow="tram" oneway="1"/>

    <edge id=":1003522078_0" function="internal">
        <lane id=":1003522078_0_0" index="0" disallow="tram rail_urban rail rail_electric ship" speed="3.68" length="4.79" shape="885.39,1026.17 883.92,1026.29 883.08,1025.91 882.89,1025.01 883.34,1023.61"/>
    </edge>
    <edge id=":1003522078_1" function="internal">
        <lane id=":1003522078_1_0" index="0" disallow="tram rail_urban rail rail_electric ship" speed="4.92" length="3.54" shape="880.27,1022.15 881.24,1022.95 882.07,1023.47 882.77,1023.68 883.34,1023.61"/>
    </edge>
    <edge id=":1003522078_2" function="internal">
        <lane id=":1003522078_2_0" index="0" disallow="tram rail_urban rail rail_electric ship" speed="11.88" length="3.96" shape="881.67,1027.19 883.34,1023.61"/>
    </edge>
    <edge id=":1046609056_0" function="internal">
        <lane id=":1046609056_0_0" index="0" disallow="tram rail_urban rail rail_electric ship" speed="3.65" length="4.67" shape="1930.40,2041.61 1929.29,2040.69 1928.98,2039.85 1929.46,2039.10 1930.73,2038.42"/>
    </edge>
    <edge id=":1115330860_0" function="internal">
        <lane id=":1115330860_0_0" index="0" disallow="tram rail_urban rail rail_electric ship" speed="22.22" length="4.85" shape="1080.84,1220.85 1081.26,1219.48 1081.53,1218.52 1081.72,1217.56 1081.86,1216.13"/>
    </edge>
    <edge id=":1116037887_0" function="internal">
        <lane id=":1116037887_0_0" index="0" allow="bicycle pedestrian" speed="2.78" length="4.77" width="2.00" shape="981.54,1522.78 980.47,1522.45 979.49,1522.65 978.60,1523.39 977.81,1524.65"/>
    </edge>
    <edge id=":1116037887_1" function="internal">
        <lane id=":1116037887_1_0" index="0" allow="bicycle pedestrian" speed="2.78" length="5.82" width="2.00" shape="981.54,1522.78 980.01,1522.06 978.85,1521.78 977.64,1521.84 975.94,1522.10"/>
    </edge>
    <edge id=":1116037890_0" function="internal">
        <lane id=":1116037890_0_0" index="0" allow="bicycle pedestrian" speed="2.78" length="5.13" width="2.00" shape="1022.08,1544.46 1017.60,1541.96"/>
    </edge>
    <edge id=":1144707956_0" function="internal">
        <lane id=":1144707956_0_0" index="0" disallow="tram rail_urban rail rail_electric ship" speed="16.67" length="12.01" shape="1199.80,1800.57 1197.51,1798.47 1195.72,1796.92 1193.65,1795.55 1190.55,1793.99"/>
        <lane id=":1144707956_0_1" index="1" disallow="tram rail_urban rail rail_electric ship" speed="16.67" length="12.01" shape="1199.80,1800.57 1197.78,1798.04 1196.55,1795.54 1194.97,1793.18 1191.88,1791.08"/>
    </edge>
    <edge id=":1144707956_2" function="internal">
        <lane id=":1144707956_2_0" index="0" disallow="tram rail_urban rail rail_electric ship" speed="27.78" length="11.82" shape="1202.30,1796.87 1199.12,1795.35 1197.06,1794.05 1195.02,1792.71 1191.88,1791.08"/>
        <lane id=":1144707956_2_1" index="1" disallow="tram rail_urban rail rail_electric ship" speed="27.78" length="11.82" shape="1203.53,1793.91 1200.37,1792.41 1198.34,1791.11 1196.32,1789.79 1193.21,1788.17"/>
        <lane id=":1144707956_2_2" index="2" disallow="tram rail_urban rail rail_electric ship" speed="27.78" length="11.82" shape="1204.76,1790.96 1201.63,1789.46 1199.62,1788.18 1197.63,1786.86 1194.55,1785.26"/>
    </edge>
    <edge id=":1144707969_0" function="internal">
        <lane id=":1144707969_0_0" index="0" allow="delivery bicycle pedestrian" speed="5.56" length="6.76" shape="1279.58,1869.11 1278.46,1862.45"/>
    </edge>
    <edge id=":1144707969_1" function="internal">
        <lane id=":1144707969_1_0" index="0" allow="delivery bicycle pedestrian" speed="5.56" length="5.69" shape="1279.58,1869.11 1279.56,1867.56 1279.99,1866.31 1280.88,1865.35 1282.23,1864.70"/>
    </edge>
    <edge id=":1144707969_2" function="internal">
        <lane id=":1144707969_2_0" index="0" allow="delivery bicycle pedestrian" speed="5.56" length="5.68" shape="1275.83,1866.87 1277.21,1866.16 1278.11,1865.18 1278.52,1863.95 1278.46,1862.45"/>
    </edge>
    <edge id=":1144707969_3" function="internal">
        <lane id=":1144707969_3_0" index="0" allow="delivery bicycle pedestrian" speed="5.56" length="6.76" shape="1275.83,1866.87 1282.23,1864.70"/>
    </edge>
    <edge id=":1166321672_0" function="internal">
        <lane id=":1166321672_0_0" index="0" disallow="tram rail_urban rail rail_electric ship" speed="13.89" length="5.01" shape="1490.67,1914.07 1493.27,1909.78"/>
    </edge>
    <edge id=":1269531464_0" function="internal">
        <lane id=":1269531464_0_0" index="0" disallow="tram rail_urban rail rail_electric ship" speed="13.89" length="5.48" shape="1246.55,1323.00 1245.96,1324.62 1245.52,1325.71 1245.03,1326.79 1244.28,1328.34"/>
        <lane id=":1269531464_0_1" index="1" disallow="tram rail_urban rail rail_electric ship" speed="13.89" length="5.48" shape="1243.55,1321.90 1242.99,1323.43 1242.57,1324.46 1242.11,1325.48 1241.41,1326.94"/>
        <lane id=":1269531464_0_2" index="2" disallow="tram rail_urban rail rail_electric ship" speed="13.89" length="5.48" shape="1240.55,1320.80 1240.01,1322.24 1239.63,1323.21 1239.19,1324.17 1238.53,1325.55"/>
    </edge>
    <edge id=":1407730380_0" function="internal">
        <lane id=":1407730380_0_0" index="0" disallow="tram rail_urban rail rail_electric ship" speed="4.01" length="3.38" shape="2118.52,1782.05 2119.47,1781.92 2120.16,1781.54 2120.59,1780.92 2120.76,1780.06"/>
    </edge>
    <edge id=":1407730380_1" function="internal">
        <lane id=":1407730380_1_0" index="0" allow="bicycle" speed="2.04" length="1.46" width="1.00" shape="2118.52,1782.05 2118.89,1782.30 2119.02,1782.55 2118.90,1782.80 2118.52,1783.05"/>
    </edge>
    <edge id=":1407730380_2" function="internal">
        <lane id=":1407730380_2_0" index="0" allow="bicycle" speed="4.10" length="3.22" width="1.00" shape="2120.36,1785.08 2120.33,1784.19 2120.01,1783.55 2119.41,1783.17 2118.52,1783.05"/>
    </edge>
    <edge id=":1407730380_3" function="internal">
        <lane id=":1407730380_3_0" index="0" disallow="tram rail_urban rail rail_electric ship" speed="13.89" length="5.22" shape="2121.45,1785.20 2121.86,1780.11"/>
        <lane id=":1407730380_3_1" index="1" disallow="tram rail_urban rail rail_electric ship" speed="13.89" length="5.22" shape="2124.63,1785.55 2125.05,1780.24"/>
    </edge>
    <edge id=":1426837323_0" function="internal">
        <lane id=":1426837323_0_0" index="0" disallow="tram rail_urban rail rail_electric ship" speed="13.89" length="4.96" shape="2001.32,1531.57 1996.38,1531.05"/>
    </edge>
    <edge id=":1426837323_1" function="internal">
        <lane id=":1426837323_1_0" index="0" disallow="tram rail_urban rail rail_electric ship" speed="3.65" length="2.34" shape="2001.32,1531.57 2000.20,1530.66 1999.87,1529.83"/>
    </edge>
    <edge id=":1426837323_4" function="internal">
        <lane id=":1426837323_4_0" index="0" disallow="tram rail_urban rail rail_electric ship" speed="3.65" length="2.34" shape="1999.87,1529.83 2000.35,1529.07 2001.61,1528.38"/>
    </edge>
    <edge id=":1426837323_2" function="internal">
        <lane id=":1426837323_2_0" index="0" disallow="tram rail_urban rail rail_electric ship" speed="13.89" length="4.89" shape="1996.75,1527.87 2001.61,1528.38"/>
    </edge>
    <edge id=":1426837323_3" function="internal">
        <lane id=":1426837323_3_0" index="0" disallow="tram rail_urban rail rail_electric ship" speed="3.65" length="2.34" shape="1996.75,1527.87 1997.85,1528.81 1998.15,1529.65"/>
    </edge>
    <edge id=":1426837323_5" function="internal">
        <lane id=":1426837323_5_0" index="0" disallow="tram rail_urban rail rail_electric ship" speed="3.65" length="2.34" shape="1998.15,1529.65 1997.66,1530.39 1996.38,1531.05"/>
    </edge>
    <edge id=":1426837324_0" function="internal">
        <lane id=":1426837324_0_0" index="0" disallow="tram rail_urban rail rail_electric ship" speed="13.89" length="5.33" shape="1998.43,1557.68 1996.86,1557.81 1995.77,1557.86 1994.69,1557.82 1993.12,1557.68"/>
    </edge>
    <edge id=":1426837326_0" function="internal">
        <lane id=":1426837326_0_0" index="0" disallow="tram rail_urban rail rail_electric ship" speed="13.89" length="4.99" shape="1952.97,1555.37 1947.99,1555.13"/>
    </edge>
    <edge id=":1503785812_0" function="internal">
        <lane id=":1503785812_0_0" index="0" allow="rail rail_electric" speed="83.33" length="2.99" shape="1648.92,2038.32 1651.73,2039.34"/>
    </edge>
    <edge id=":1503785812_1" function="internal">
        <lane id=":1503785812_1_0" index="0" allow="rail rail_electric" speed="50.00" length="3.02" shape="1648.92,2038.32 1651.75,2039.36"/>
    </edge>
    <edge id=":1505255237_0" function="internal">
        <lane id=":1505255237_0_0" index="0" allow="delivery bicycle pedestrian" speed="5.56" length="6.63" shape="2112.47,1850.99 2110.54,1850.61 2109.21,1850.34 2107.88,1850.16 2105.92,1850.04"/>
    </edge>
    <edge id=":1505255237_1" function="internal">
        <lane id=":1505255237_1_0" index="0" allow="delivery bicycle pedestrian" speed="3.65" length="2.34" shape="2112.47,1850.99 2111.49,1849.93 2111.30,1849.05"/>
    </edge>
    <edge id=":1505255237_5" function="internal">
        <lane id=":1505255237_5_0" index="0" allow="delivery bicycle pedestrian" speed="3.65" length="2.34" shape="2111.30,1849.05 2111.88,1848.37 2113.24,1847.88"/>
    </edge>
    <edge id=":1505255237_2" function="internal">
        <lane id=":1505255237_2_0" index="0" allow="delivery bicycle pedestrian" speed="5.56" length="7.29" shape="2106.03,1846.84 2108.19,1846.97 2109.66,1847.17 2111.11,1847.46 2113.24,1847.88"/>
    </edge>
    <edge id=":1505255237_3" function="internal">
        <lane id=":1505255237_3_0" index="0" allow="delivery bicycle pedestrian" speed="3.65" length="2.34" shape="2106.03,1846.84 2107.21,1847.69 2107.58,1848.50"/>
    </edge>
    <edge id=":1505255237_6" function="internal">
        <lane id=":1505255237_6_0" index="0" allow="delivery bicycle pedestrian" speed="3.65" length="2.34" shape="2107.58,1848.50 2107.15,1849.29 2105.92,1850.04"/>
    </edge>
    <edge id=":1505255237_4" function="internal">
        <lane id=":1505255237_4_0" index="0" allow="tram" speed="13.89" length="7.78" shape="2105.99,1848.14 2108.23,1848.65 2109.74,1849.16 2111.12,1849.94 2113.02,1851.25"/>
    </edge>
    <edge id=":162610_0" function="internal">
        <lane id=":162610_0_0" index="0" allow="delivery bicycle pedestrian" speed="3.65" length="4.67" shape="938.89,988.25 940.29,987.89 941.15,988.13 941.48,988.96 941.27,990.39"/>
    </edge>
    <edge id=":162636_0" function="internal">
        <lane id=":162636_0_0" index="0" disallow="tram rail_urban rail rail_electric ship" speed="13.89" length="5.46" shape="1630.16,1895.11 1635.44,1896.49"/>
    </edge>
    <edge id=":162639_0" function="internal">
        <lane id=":162639_0_0" index="0" disallow="tram rail_urban rail rail_electric ship" speed="8.99" length="11.90" shape="1514.15,1847.59 1514.84,1851.37 1515.97,1854.29 1517.53,1856.36 1519.52,1857.57"/>
    </edge>
    <edge id=":162639_1" function="internal">
        <lane id=":162639_1_0" index="0" disallow="tram rail_urban rail rail_electric ship" speed="6.27" length="4.27" shape="1514.15,1847.59 1514.05,1851.06 1513.60,1851.73"/>
    </edge>
    <edge id=":162639_2" function="internal">
        <lane id=":162639_2_0" index="0" disallow="tram rail_urban rail rail_electric ship" speed="3.68" length="2.55" shape="1514.15,1847.59 1513.77,1849.02 1513.12,1849.67 1512.97,1849.65"/>
    </edge>
    <edge id=":162639_6" function="internal">
        <lane id=":162639_6_0" index="0" disallow="tram rail_urban rail rail_electric ship" speed="6.27" length="7.68" shape="1513.60,1851.73 1512.80,1852.94 1510.38,1853.25 1506.81,1851.99"/>
    </edge>
    <edge id=":162639_7" function="internal">
        <lane id=":162639_7_0" index="0" disallow="tram rail_urban rail rail_electric ship" speed="3.68" length="2.24" shape="1512.97,1849.65 1512.21,1849.54 1511.05,1848.64"/>
    </edge>
    <edge id=":162639_3" function="internal">
        <lane id=":162639_3_0" index="0" disallow="tram rail_urban rail rail_electric ship" speed="8.41" length="12.12" shape="1514.38,1860.54 1514.17,1858.33 1512.84,1856.17 1510.38,1854.06 1506.81,1851.99"/>
    </edge>
    <edge id=":162639_4" function="internal">
        <lane id=":162639_4_0" index="0" disallow="tram rail_urban rail rail_electric ship" speed="13.89" length="12.50" shape="1514.38,1860.54 1514.26,1857.29 1513.21,1854.60 1511.91,1851.90 1511.05,1848.64"/>
    </edge>
    <edge id=":162639_5" function="internal">
        <lane id=":162639_5_0" index="0" disallow="tram rail_urban rail rail_electric ship" speed="5.53" length="3.85" shape="1514.38,1860.54 1514.97,1858.65 1516.02,1857.53 1516.35,1857.45"/>
    </edge>
    <edge id=":162639_8" function="internal">
        <lane id=":162639_8_0" index="0" disallow="tram rail_urban rail rail_electric ship" speed="5.53" length="3.25" shape="1516.35,1857.45 1517.54,1857.17 1519.52,1857.57"/>
    </edge>
    <edge id=":162640_0" function="internal">
        <lane id=":162640_0_0" index="0" disallow="tram rail_urban rail rail_electric ship" speed="3.65" length="4.67" shape="1644.65,1531.93 1645.51,1533.09 1645.62,1533.98 1644.97,1534.59 1643.57,1534.94"/>
    </edge>
    <edge id=":162641_0" function="internal">
        <lane id=":162641_0_0" index="0" disallow="tram rail_urban rail rail_electric ship" speed="6.51" length="8.74" shape="1552.67,1502.56 1550.33,1502.13 1548.39,1502.53 1546.83,1503.76 1545.66,1505.84"/>
    </edge>
    <edge id=":162641_1" function="internal">
        <lane id=":162641_1_0" index="0" disallow="tram rail_urban rail rail_electric ship" speed="8.33" length="14.00" shape="1552.67,1502.56 1549.52,1500.99 1546.99,1498.76 1544.84,1496.05 1542.79,1493.04"/>
    </edge>
    <edge id=":162641_2" function="internal">
        <lane id=":162641_2_0" index="0" disallow="tram rail_urban rail rail_electric ship" speed="3.65" length="4.67" shape="1552.67,1502.56 1551.79,1501.42 1551.67,1500.54 1552.30,1499.91 1553.70,1499.53"/>
    </edge>
    <edge id=":162641_3" function="internal">
        <lane id=":162641_3_0" index="0" disallow="tram rail_urban rail rail_electric ship" speed="8.33" length="12.08" shape="1542.68,1504.68 1543.78,1501.15 1544.16,1498.04 1543.83,1495.33 1542.79,1493.04"/>
    </edge>
    <edge id=":162641_4" function="internal">
        <lane id=":162641_4_0" index="0" disallow="tram rail_urban rail rail_electric ship" speed="8.01" length="13.73" shape="1542.68,1504.68 1544.51,1501.42 1546.96,1499.47 1550.02,1498.85 1553.70,1499.53"/>
    </edge>
    <edge id=":162641_5" function="internal">
        <lane id=":162641_5_0" index="0" disallow="tram rail_urban rail rail_electric ship" speed="3.65" length="4.67" shape="1542.68,1504.68 1543.86,1503.85 1544.75,1503.77 1545.35,1504.43 1545.66,1505.84"/>
    </edge>
    <edge id=":162642_0" function="internal">
        <lane id=":162642_0_0" index="0" disallow="tram rail_urban rail rail_electric ship" speed="6.59" length="2.40" shape="1371.90,1443.36 1371.80,1445.76"/>
    </edge>
    <edge id=":162642_1" function="internal">
        <lane id=":162642_1_0" index="0" disallow="tram rail_urban rail rail_electric ship" speed="3.65" length="4.67" shape="1369.10,1444.05 1370.42,1443.47 1371.31,1443.56 1371.77,1444.32 1371.80,1445.76"/>
    </edge>
    <edge id=":162643_0" function="internal">
        <lane id=":162643_0_0" index="0" disallow="tram rail_urban rail rail_electric ship" speed="11.11" length="10.23" shape="1331.53,1536.84 1331.18,1533.85 1330.83,1531.75 1330.68,1529.65 1330.94,1526.68"/>
    </edge>
    <edge id=":162643_1" function="internal">
        <lane id=":162643_1_0" index="0" disallow="tram rail_urban rail rail_electric ship" speed="4.97" length="6.18" shape="1331.53,1536.84 1332.27,1536.62 1334.07,1537.13 1336.05,1537.87 1337.38,1538.37"/>
    </edge>
    <edge id=":162643_2" function="internal">
        <lane id=":162643_2_0" index="0" disallow="tram rail_urban rail rail_electric ship" speed="7.25" length="10.15" shape="1334.11,1527.13 1334.02,1530.12 1334.68,1532.49 1336.11,1534.22 1338.31,1535.31"/>
    </edge>
    <edge id=":162643_3" function="internal">
        <lane id=":162643_3_0" index="0" disallow="tram rail_urban rail rail_electric ship" speed="3.65" length="2.34" shape="1334.11,1527.13 1333.15,1528.20 1332.30,1528.49"/>
    </edge>
    <edge id=":162643_7" function="internal">
        <lane id=":162643_7_0" index="0" disallow="tram rail_urban rail rail_electric ship" speed="3.65" length="2.34" shape="1332.30,1528.49 1331.56,1527.98 1330.94,1526.68"/>
    </edge>
    <edge id=":162643_4" function="internal">
        <lane id=":162643_4_0" index="0" disallow="tram rail_urban rail rail_electric ship" speed="6.05" length="9.07" shape="1324.48,1530.41 1326.99,1531.02 1328.90,1530.60 1330.22,1529.15 1330.94,1526.68"/>
    </edge>
    <edge id=":162643_5" function="internal">
        <lane id=":162643_5_0" index="0" disallow="tram rail_urban rail rail_electric ship" speed="13.89" length="14.80" shape="1324.48,1530.41 1338.31,1535.31"/>
        <lane id=":162643_5_1" index="1" disallow="tram rail_urban rail rail_electric ship" speed="13.89" length="14.80" shape="1323.30,1533.39 1337.38,1538.37"/>
    </edge>
    <edge id=":1646282534_0" function="internal">
        <lane id=":1646282534_0_0" index="0" disallow="tram rail_urban rail rail_electric ship" speed="13.89" length="17.32" shape="1183.84,1339.85 1188.94,1342.17 1193.13,1343.44 1196.82,1343.86 1200.45,1343.66"/>
    </edge>
    <edge id=":1646282534_1" function="internal">
        <lane id=":1646282534_1_0" index="0" disallow="tram rail_urban rail rail_electric ship" speed="13.89" length="17.18" shape="1183.84,1339.85 1188.39,1342.18 1191.47,1343.84 1194.46,1345.67 1198.72,1348.48"/>
        <lane id=":1646282534_1_1" index="1" disallow="tram rail_urban rail rail_electric ship" speed="13.89" length="17.18" shape="1182.38,1342.70 1186.91,1345.02 1189.97,1346.68 1192.94,1348.50 1197.19,1351.30"/>
    </edge>
    <edge id=":1678728951_0" function="internal">
        <lane id=":1678728951_0_0" index="0" disallow="tram rail_urban rail rail_electric ship" speed="13.89" length="11.94" shape="2060.10,1146.61 2063.28,1146.48 2065.79,1146.27 2068.32,1145.58 2071.58,1144.01"/>
    </edge>
    <edge id=":1678728951_1" function="internal">
        <lane id=":1678728951_1_0" index="0" disallow="tram rail_urban rail rail_electric ship" speed="13.89" length="11.94" shape="2062.23,1151.81 2064.71,1149.14 2066.48,1147.36 2068.47,1145.86 2071.58,1144.01"/>
        <lane id=":1678728951_1_1" index="1" disallow="tram rail_urban rail rail_electric ship" speed="13.89" length="11.94" shape="2064.34,1154.24 2066.67,1151.70 2068.33,1150.00 2070.20,1148.56 2073.14,1146.81"/>
    </edge>
    <edge id=":1678932151_0" function="internal">
        <lane id=":1678932151_0_0" index="0" disallow="tram rail_urban rail rail_electric ship" speed="13.89" length="4.76" shape="1873.30,1002.71 1872.22,1001.81 1871.49,1001.16 1870.81,1000.47 1869.88,999.41"/>
    </edge>
    <edge id=":1678932155_0" function="internal">
        <lane id=":1678932155_0_0" index="0" disallow="tram rail_urban rail rail_electric ship" speed="13.89" length="6.98" shape="1855.45,1003.21 1857.35,1002.38 1858.64,1001.76 1859.80,1000.94 1861.32,999.55"/>
    </edge>
    <edge id=":1678932165_0" function="internal">
        <lane id=":1678932165_0_0" index="0" disallow="tram rail_urban rail rail_electric ship" speed="13.89" length="18.47" shape="1892.70,1049.09 1887.56,1046.11 1883.10,1044.64 1879.09,1044.10 1875.31,1043.90"/>
    </edge>
    <edge id=":1678932165_1" function="internal">
        <lane id=":1678932165_1_0" index="0" disallow="tram rail_urban rail rail_electric ship" speed="13.89" length="18.44" shape="1892.70,1049.09 1877.22,1039.20"/>
        <lane id=":1678932165_1_1" index="1" disallow="tram rail_urban rail rail_electric ship" speed="13.89" length="18.44" shape="1894.54,1046.48 1878.94,1036.50"/>
    </edge>
    <edge id=":1678932186_0" function="internal">
        <lane id=":1678932186_0_0" index="0" disallow="tram rail_urban rail rail_electric ship" speed="13.89" length="5.61" shape="1871.16,1044.12 1869.51,1044.32 1868.38,1044.52 1867.29,1044.84 1865.74,1045.44"/>
    </edge>
    <edge id=":1678932189_0" function="internal">
        <lane id=":1678932189_0_0" index="0" disallow="tram rail_urban rail rail_electric ship" speed="11.11" length="9.73" shape="1862.47,1047.00 1860.02,1048.57 1858.23,1049.61 1856.79,1050.93 1855.40,1053.36"/>
    </edge>
    <edge id=":1678932189_1" function="internal">
        <lane id=":1678932189_1_0" index="0" disallow="tram rail_urban rail rail_electric ship" speed="11.11" length="9.71" shape="1859.50,1044.56 1855.40,1053.36"/>
    </edge>
    <edge id=":1678932203_0" function="internal">
        <lane id=":1678932203_0_0" index="0" disallow="tram rail_urban rail rail_electric ship" speed="5.34" length="5.07" shape="1947.85,1111.66 1948.93,1112.59 1950.04,1113.02 1951.19,1112.97 1952.37,1112.42"/>
    </edge>
    <edge id=":1678932203_1" function="internal">
        <lane id=":1678932203_1_0" index="0" disallow="tram rail_urban rail rail_electric ship" speed="8.33" length="6.02" shape="1947.56,1116.04 1948.93,1114.89 1949.89,1114.13 1950.88,1113.41 1952.37,1112.42"/>
    </edge>
    <edge id=":1678932237_0" function="internal">
        <lane id=":1678932237_0_0" index="0" disallow="tram rail_urban rail rail_electric ship" speed="8.33" length="5.24" shape="2033.88,1186.30 2032.33,1186.42 2031.27,1186.54 2030.23,1186.74 2028.71,1187.07"/>
    </edge>
    <edge id=":1681471628_0" function="internal">
        <lane id=":1681471628_0_0" index="0" disallow="tram rail_urban rail rail_electric ship" speed="13.89" length="7.79" shape="1880.23,1013.52 1878.49,1015.05 1877.30,1016.10 1876.21,1017.25 1874.82,1019.09"/>
    </edge>
    <edge id=":1681471631_0" function="internal">
        <lane id=":1681471631_0_0" index="0" disallow="tram rail_urban rail rail_electric ship" speed="13.89" length="0.36" shape="1858.37,1011.89 1858.51,1011.97 1858.60,1012.02 1858.69,1012.08 1858.82,1012.17"/>
        <lane id=":1681471631_0_1" index="1" disallow="tram rail_urban rail rail_electric ship" speed="13.89" length="0.36" shape="1856.82,1014.69 1856.87,1014.72 1856.90,1014.73 1856.93,1014.75 1856.97,1014.78"/>
    </edge>
    <edge id=":1681471635_0" function="internal">
        <lane id=":1681471635_0_0" index="0" disallow="tram rail_urban rail rail_electric ship" speed="13.89" length="4.98" shape="1876.80,1024.25 1881.10,1026.98"/>
        <lane id=":1681471635_0_1" index="1" disallow="tram rail_urban rail rail_electric ship" speed="13.89" length="4.98" shape="1875.20,1027.02 1879.32,1029.64"/>
    </edge>
    <edge id=":1681471638_0" function="internal">
        <lane id=":1681471638_0_0" index="0" disallow="tram rail_urban rail rail_electric ship" speed="13.89" length="4.21" shape="1873.16,1036.60 1869.64,1034.39"/>
        <lane id=":1681471638_0_1" index="1" disallow="tram rail_urban rail rail_electric ship" speed="13.89" length="4.21" shape="1874.89,1033.91 1871.28,1031.65"/>
    </edge>
    <edge id=":1681471646_0" function="internal">
        <lane id=":1681471646_0_0" index="0" disallow="tram rail_urban rail rail_electric ship" speed="13.89" length="4.61" shape="1863.47,1036.76 1862.74,1037.91 1862.27,1038.72 1861.85,1039.56 1861.27,1040.80"/>
    </edge>
    <edge id=":1681501895_0" function="internal">
        <lane id=":1681501895_0_0" index="0" disallow="tram rail_urban rail rail_electric ship" speed="13.89" length="0.26" shape="1763.02,962.36 1763.32,962.48"/>
        <lane id=":1681501895_0_1" index="1" disallow="tram rail_urban rail rail_electric ship" speed="13.89" length="0.26" shape="1761.83,965.33 1762.01,965.40"/>
    </edge>
    <edge id=":1681501906_0" function="internal">
        <lane id=":1681501906_0_0" index="0" disallow="tram rail_urban rail rail_electric ship" speed="9.05" length="8.01" shape="1802.85,998.73 1800.49,997.76 1798.42,997.22 1796.64,997.12 1795.14,997.45"/>
    </edge>
    <edge id=":1681501906_1" function="internal">
        <lane id=":1681501906_1_0" index="0" disallow="tram rail_urban rail rail_electric ship" speed="13.89" length="13.13" shape="1802.85,998.73 1791.00,993.05"/>
        <lane id=":1681501906_1_1" index="1" disallow="tram rail_urban rail rail_electric ship" speed="13.89" length="13.13" shape="1804.22,995.84 1792.39,990.16"/>
    </edge>
    <edge id=":1681501908_0" function="internal">