<?xml version="1.0" encoding="UTF-8"?>

<!-- generated on 08/19/19 14:05:29 by Eclipse SUMO netconvert Version 1.2.0
<configuration xmlns:xsi="http://www.w3.org/2001/XMLSchema-instance" xsi:noNamespaceSchemaLocation="http://sumo.dlr.de/xsd/netconvertConfiguration.xsd">

    <input>
        <osm-files value="C:\Users\darkm\Desktop\OSMap.osm"/>
    </input>

    <output>
        <output-file value="mapNetconvert.net.xml"/>
    </output>

    <projection>
        <proj.utm value="true"/>
    </projection>

    <processing>
        <geometry.remove value="true"/>
        <roundabouts.guess value="true"/>
    </processing>

    <junctions>
        <junctions.join value="true"/>
    </junctions>

</configuration>
-->

<net version="1.1" junctionCornerDetail="5" limitTurnSpeed="5.50" xmlns:xsi="http://www.w3.org/2001/XMLSchema-instance" xsi:noNamespaceSchemaLocation="http://sumo.dlr.de/xsd/net_file.xsd">

    <location netOffset="-660598.92,-4466094.04" convBoundary="0.00,0.00,778.44,867.45" origBoundary="-1.109402,40.329912,-1.100246,40.337629" projParameter="+proj=utm +zone=30 +ellps=WGS84 +datum=WGS84 +units=m +no_defs"/>

    <type id="highway.bridleway" priority="1" numLanes="1" speed="2.78" allow="pedestrian" oneway="1" width="2.00"/>
    <type id="highway.bus_guideway" priority="1" numLanes="1" speed="27.78" allow="bus" oneway="1"/>
    <type id="highway.cycleway" priority="1" numLanes="1" speed="8.33" allow="bicycle" oneway="0" width="1.00"/>
    <type id="highway.footway" priority="1" numLanes="1" speed="2.78" allow="pedestrian" oneway="1" width="2.00"/>
    <type id="highway.ford" priority="1" numLanes="1" speed="2.78" allow="army" oneway="0"/>
    <type id="highway.living_street" priority="2" numLanes="1" speed="2.78" disallow="tram rail_urban rail rail_electric ship" oneway="0"/>
    <type id="highway.motorway" priority="14" numLanes="2" speed="39.44" allow="private emergency authority army vip passenger hov taxi bus coach delivery truck trailer motorcycle evehicle custom1 custom2" oneway="1"/>
    <type id="highway.motorway_link" priority="9" numLanes="1" speed="22.22" allow="private emergency authority army vip passenger hov taxi bus coach delivery truck trailer motorcycle evehicle custom1 custom2" oneway="1"/>
    <type id="highway.path" priority="1" numLanes="1" speed="2.78" allow="bicycle pedestrian" oneway="1" width="2.00"/>
    <type id="highway.pedestrian" priority="1" numLanes="1" speed="2.78" allow="pedestrian" oneway="1" width="2.00"/>
    <type id="highway.primary" priority="12" numLanes="2" speed="27.78" disallow="tram rail_urban rail rail_electric ship" oneway="0"/>
    <type id="highway.primary_link" priority="7" numLanes="1" speed="22.22" disallow="tram rail_urban rail rail_electric ship" oneway="0"/>
    <type id="highway.raceway" priority="15" numLanes="2" speed="83.33" allow="vip" oneway="0"/>
    <type id="highway.residential" priority="3" numLanes="1" speed="13.89" disallow="tram rail_urban rail rail_electric ship" oneway="0"/>
    <type id="highway.secondary" priority="11" numLanes="2" speed="27.78" disallow="tram rail_urban rail rail_electric ship" oneway="0"/>
    <type id="highway.secondary_link" priority="6" numLanes="1" speed="22.22" disallow="tram rail_urban rail rail_electric ship" oneway="0"/>
    <type id="highway.service" priority="1" numLanes="1" speed="5.56" allow="delivery bicycle pedestrian" oneway="0"/>
    <type id="highway.stairs" priority="1" numLanes="1" speed="1.39" allow="pedestrian" oneway="1" width="2.00"/>
    <type id="highway.step" priority="1" numLanes="1" speed="1.39" allow="pedestrian" oneway="1" width="2.00"/>
    <type id="highway.steps" priority="1" numLanes="1" speed="1.39" allow="pedestrian" oneway="1" width="2.00"/>
    <type id="highway.tertiary" priority="10" numLanes="1" speed="22.22" disallow="tram rail_urban rail rail_electric ship" oneway="0"/>
    <type id="highway.tertiary_link" priority="5" numLanes="1" speed="22.22" disallow="tram rail_urban rail rail_electric ship" oneway="0"/>
    <type id="highway.track" priority="1" numLanes="1" speed="5.56" disallow="tram rail_urban rail rail_electric ship" oneway="0"/>
    <type id="highway.trunk" priority="13" numLanes="2" speed="27.78" disallow="tram rail_urban rail rail_electric bicycle pedestrian ship" oneway="0"/>
    <type id="highway.trunk_link" priority="8" numLanes="1" speed="22.22" disallow="tram rail_urban rail rail_electric bicycle pedestrian ship" oneway="0"/>
    <type id="highway.unclassified" priority="4" numLanes="1" speed="13.89" disallow="tram rail_urban rail rail_electric ship" oneway="0"/>
    <type id="highway.unsurfaced" priority="1" numLanes="1" speed="8.33" disallow="tram rail_urban rail rail_electric ship" oneway="0"/>
    <type id="railway.light_rail" priority="19" numLanes="1" speed="27.78" allow="rail_urban" oneway="1"/>
    <type id="railway.preserved" priority="16" numLanes="1" speed="27.78" allow="rail" oneway="1"/>
    <type id="railway.rail" priority="20" numLanes="1" speed="83.33" allow="rail rail_electric" oneway="1"/>
    <type id="railway.subway" priority="18" numLanes="1" speed="27.78" allow="rail_urban" oneway="1"/>
    <type id="railway.tram" priority="17" numLanes="1" speed="13.89" allow="tram" oneway="1"/>

    <edge id=":2370547795_0" function="internal">
        <lane id=":2370547795_0_0" index="0" allow="delivery bicycle pedestrian" speed="4.92" length="5.16" shape="258.75,433.55 258.28,432.19 257.50,431.36 256.40,431.07 254.98,431.32"/>
    </edge>
    <edge id=":2370547795_1" function="internal">
        <lane id=":2370547795_1_0" index="0" disallow="tram rail_urban rail rail_electric ship" speed="13.89" length="9.46" shape="258.75,433.55 256.94,424.26"/>
    </edge>
    <edge id=":2370547795_2" function="internal">
        <lane id=":2370547795_2_0" index="0" disallow="tram rail_urban rail rail_electric ship" speed="5.47" length="5.53" shape="253.99,428.27 255.49,427.59 256.49,426.70 256.97,425.59 256.94,424.26"/>
    </edge>
    <edge id=":2370547795_3" function="internal">
        <lane id=":2370547795_3_0" index="0" allow="delivery bicycle pedestrian" speed="3.65" length="4.67" shape="253.99,428.27 255.38,428.66 256.00,429.30 255.87,430.18 254.98,431.32"/>
    </edge>
    <edge id=":2370547804_0" function="internal">
        <lane id=":2370547804_0_0" index="0" disallow="tram rail_urban rail rail_electric ship" speed="13.89" length="6.59" shape="263.09,442.18 262.21,443.89 261.94,445.24 261.68,446.58 260.79,448.29"/>
    </edge>
    <edge id=":2370547804_1" function="internal">
        <lane id=":2370547804_1_0" index="0" disallow="tram rail_urban rail rail_electric ship" speed="4.79" length="3.17" shape="263.09,442.18 261.43,444.15 260.87,444.37"/>
    </edge>
    <edge id=":2370547804_4" function="internal">
        <lane id=":2370547804_4_0" index="0" disallow="tram rail_urban rail rail_electric ship" speed="4.79" length="4.50" shape="260.87,444.37 260.25,444.61 259.55,443.56 259.32,440.99"/>
    </edge>
    <edge id=":2370547804_2" function="internal">
        <lane id=":2370547804_2_0" index="0" disallow="tram rail_urban rail rail_electric ship" speed="9.82" length="5.74" shape="258.17,446.46 259.02,445.03 259.34,443.91 259.36,442.70 259.32,440.99"/>
    </edge>
    <edge id=":2370547804_3" function="internal">
        <lane id=":2370547804_3_0" index="0" disallow="tram rail_urban rail rail_electric ship" speed="3.65" length="2.09" shape="258.17,446.46 259.51,445.93 260.15,446.02"/>
    </edge>
    <edge id=":2370547804_5" function="internal">
        <lane id=":2370547804_5_0" index="0" disallow="tram rail_urban rail rail_electric ship" speed="3.65" length="2.58" shape="260.15,446.02 260.39,446.06 260.82,446.84 260.79,448.29"/>
    </edge>
    <edge id=":2370547808_0" function="internal">
        <lane id=":2370547808_0_0" index="0" disallow="tram rail_urban rail rail_electric ship" speed="11.26" length="15.29" shape="615.30,465.79 613.09,469.22 611.81,472.75 611.48,476.40 612.09,480.15"/>
    </edge>
    <edge id=":2370547808_1" function="internal">
        <lane id=":2370547808_1_0" index="0" disallow="tram rail_urban rail rail_electric ship" speed="13.89" length="15.98" shape="615.30,465.79 613.11,469.01 611.13,472.58 609.25,476.22 607.32,479.63"/>
    </edge>
    <edge id=":2370547808_2" function="internal">
        <lane id=":2370547808_2_0" index="0" disallow="tram rail_urban rail rail_electric ship" speed="13.89" length="24.25" shape="601.89,476.25 614.26,455.39"/>
    </edge>
    <edge id=":2370547808_3" function="internal">
        <lane id=":2370547808_3_0" index="0" disallow="tram rail_urban rail rail_electric ship" speed="6.07" length="4.85" shape="604.61,477.94 606.84,475.24 608.14,474.89"/>
    </edge>
    <edge id=":2370547808_4" function="internal">
        <lane id=":2370547808_4_0" index="0" disallow="tram rail_urban rail rail_electric ship" speed="3.65" length="2.34" shape="604.61,477.94 605.92,477.34 606.81,477.42"/>
    </edge>
    <edge id=":2370547808_5" function="internal">
        <lane id=":2370547808_5_0" index="0" disallow="tram rail_urban rail rail_electric ship" speed="6.07" length="7.21" shape="608.14,474.89 608.83,474.70 610.58,476.34 612.09,480.15"/>
    </edge>
    <edge id=":2370547808_6" function="internal">
        <lane id=":2370547808_6_0" index="0" disallow="tram rail_urban rail rail_electric ship" speed="3.65" length="2.34" shape="606.81,477.42 607.28,478.19 607.32,479.63"/>
    </edge>
    <edge id=":2370547821_0" function="internal">
        <lane id=":2370547821_0_0" index="0" disallow="tram rail_urban rail rail_electric ship" speed="13.89" length="9.40" shape="313.05,631.25 321.77,634.76"/>
    </edge>
    <edge id=":2370547821_1" function="internal">
        <lane id=":2370547821_1_0" index="0" disallow="tram rail_urban rail rail_electric ship" speed="6.05" length="7.83" shape="313.05,631.25 315.54,632.47 317.14,633.76 317.85,635.13 317.66,636.57"/>
    </edge>
    <edge id=":2370547821_2" function="internal">
        <lane id=":2370547821_2_0" index="0" disallow="tram rail_urban rail rail_electric ship" speed="6.15" length="1.12" shape="314.72,635.30 315.43,634.43"/>
    </edge>
    <edge id=":2370547821_3" function="internal">
        <lane id=":2370547821_3_0" index="0" disallow="tram rail_urban rail rail_electric ship" speed="3.65" length="1.18" shape="314.72,635.30 315.71,634.66"/>
    </edge>
    <edge id=":2370547821_4" function="internal">
        <lane id=":2370547821_4_0" index="0" disallow="tram rail_urban rail rail_electric ship" speed="6.15" length="6.67" shape="315.43,634.43 315.63,634.19 317.11,633.72 319.15,633.91 321.77,634.76"/>
    </edge>
    <edge id=":2370547821_5" function="internal">
        <lane id=":2370547821_5_0" index="0" disallow="tram rail_urban rail rail_electric ship" speed="3.65" length="3.49" shape="315.71,634.66 315.93,634.52 316.82,634.47 317.40,635.15 317.66,636.57"/>
    </edge>
    <edge id=":2370547824_0" function="internal">
        <lane id=":2370547824_0_0" index="0" disallow="tram rail_urban rail rail_electric ship" speed="13.89" length="9.41" shape="369.76,654.05 378.48,657.56"/>
    </edge>
    <edge id=":2370547824_1" function="internal">
        <lane id=":2370547824_1_0" index="0" disallow="tram rail_urban rail rail_electric ship" speed="6.04" length="7.88" shape="369.76,654.05 372.26,655.28 373.85,656.59 374.53,657.98 374.30,659.44"/>
    </edge>
    <edge id=":2370547824_2" function="internal">
        <lane id=":2370547824_2_0" index="0" disallow="tram rail_urban rail rail_electric ship" speed="6.20" length="1.15" shape="371.39,658.12 372.12,657.24"/>
    </edge>
    <edge id=":2370547824_3" function="internal">
        <lane id=":2370547824_3_0" index="0" disallow="tram rail_urban rail rail_electric ship" speed="3.65" length="1.21" shape="371.39,658.12 372.42,657.48"/>
    </edge>
    <edge id=":2370547824_4" function="internal">
        <lane id=":2370547824_4_0" index="0" disallow="tram rail_urban rail rail_electric ship" speed="6.20" length="6.68" shape="372.12,657.24 372.32,657.00 373.82,656.54 375.87,656.72 378.48,657.56"/>
    </edge>
    <edge id=":2370547824_5" function="internal">
        <lane id=":2370547824_5_0" index="0" disallow="tram rail_urban rail rail_electric ship" speed="3.65" length="3.46" shape="372.42,657.48 372.61,657.36 373.51,657.33 374.07,658.02 374.30,659.44"/>
    </edge>
    <edge id=":2370547825_0" function="internal">
        <lane id=":2370547825_0_0" index="0" disallow="tram rail_urban rail rail_electric ship" speed="13.89" length="14.40" shape="314.10,658.93 300.88,653.22"/>
    </edge>
    <edge id=":2370547825_1" function="internal">
        <lane id=":2370547825_1_0" index="0" disallow="tram rail_urban rail rail_electric ship" speed="8.00" length="5.93" shape="314.10,658.93 310.78,656.90 309.59,655.24"/>
    </edge>
    <edge id=":2370547825_2" function="internal">
        <lane id=":2370547825_2_0" index="0" disallow="tram rail_urban rail rail_electric ship" speed="3.65" length="2.34" shape="314.10,658.93 313.32,657.72 313.27,656.83"/>
    </edge>
    <edge id=":2370547825_9" function="internal">
        <lane id=":2370547825_9_0" index="0" disallow="tram rail_urban rail rail_electric ship" speed="8.00" length="8.26" shape="309.59,655.24 308.91,654.29 308.49,651.11 309.51,647.36"/>
    </edge>
    <edge id=":2370547825_10" function="internal">
        <lane id=":2370547825_10_0" index="0" disallow="tram rail_urban rail rail_electric ship" speed="3.65" length="2.34" shape="313.27,656.83 313.95,656.25 315.37,655.99"/>
    </edge>
    <edge id=":2370547825_3" function="internal">
        <lane id=":2370547825_3_0" index="0" disallow="tram rail_urban rail rail_electric ship" speed="6.51" length="9.03" shape="312.45,648.63 311.80,651.02 312.07,653.04 313.26,654.70 315.37,655.99"/>
    </edge>
    <edge id=":2370547825_4" function="internal">
        <lane id=":2370547825_4_0" index="0" disallow="tram rail_urban rail rail_electric ship" speed="8.00" length="14.19" shape="312.45,648.63 310.42,651.95 307.81,653.82 304.63,654.24 300.88,653.22"/>
    </edge>
    <edge id=":2370547825_5" function="internal">
        <lane id=":2370547825_5_0" index="0" disallow="tram rail_urban rail rail_electric ship" speed="3.65" length="4.67" shape="312.45,648.63 311.24,649.42 310.34,649.46 309.77,648.78 309.51,647.36"/>
    </edge>
    <edge id=":2370547825_6" function="internal">
        <lane id=":2370547825_6_0" index="0" disallow="tram rail_urban rail rail_electric ship" speed="6.51" length="9.03" shape="302.15,650.28 304.54,650.93 306.56,650.66 308.22,649.47 309.51,647.36"/>
    </edge>
    <edge id=":2370547825_7" function="internal">
        <lane id=":2370547825_7_0" index="0" disallow="tram rail_urban rail rail_electric ship" speed="13.89" length="14.40" shape="302.15,650.28 315.37,655.99"/>
    </edge>
    <edge id=":2370547825_8" function="internal">
        <lane id=":2370547825_8_0" index="0" disallow="tram rail_urban rail rail_electric ship" speed="3.65" length="2.34" shape="302.15,650.28 302.93,651.49 302.98,652.39"/>
    </edge>
    <edge id=":2370547825_11" function="internal">
        <lane id=":2370547825_11_0" index="0" disallow="tram rail_urban rail rail_electric ship" speed="3.65" length="2.34" shape="302.98,652.39 302.30,652.96 300.88,653.22"/>
    </edge>
    <edge id=":2370547827_0" function="internal">
        <lane id=":2370547827_0_0" index="0" disallow="tram rail_urban rail rail_electric ship" speed="13.89" length="14.40" shape="370.09,682.65 356.80,677.09"/>
    </edge>
    <edge id=":2370547827_1" function="internal">
        <lane id=":2370547827_1_0" index="0" disallow="tram rail_urban rail rail_electric ship" speed="7.95" length="5.93" shape="370.09,682.65 366.71,680.63 365.54,679.01"/>
    </edge>
    <edge id=":2370547827_2" function="internal">
        <lane id=":2370547827_2_0" index="0" disallow="tram rail_urban rail rail_electric ship" speed="3.65" length="2.34" shape="370.09,682.65 369.29,681.45 369.23,680.56"/>
    </edge>
    <edge id=":2370547827_9" function="internal">
        <lane id=":2370547827_9_0" index="0" disallow="tram rail_urban rail rail_electric ship" speed="7.95" length="8.37" shape="365.54,679.01 364.82,678.03 364.43,674.83 365.53,671.05"/>
    </edge>
    <edge id=":2370547827_10" function="internal">
        <lane id=":2370547827_10_0" index="0" disallow="tram rail_urban rail rail_electric ship" speed="3.65" length="2.34" shape="369.23,680.56 369.91,679.97 371.32,679.70"/>
    </edge>
    <edge id=":2370547827_3" function="internal">
        <lane id=":2370547827_3_0" index="0" disallow="tram rail_urban rail rail_electric ship" speed="6.45" length="9.03" shape="368.44,672.38 367.75,674.76 368.00,676.78 369.19,678.42 371.32,679.70"/>
    </edge>
    <edge id=":2370547827_4" function="internal">
        <lane id=":2370547827_4_0" index="0" disallow="tram rail_urban rail rail_electric ship" speed="8.10" length="14.23" shape="368.44,672.38 366.35,675.69 363.71,677.58 360.53,678.05 356.80,677.09"/>
    </edge>
    <edge id=":2370547827_5" function="internal">
        <lane id=":2370547827_5_0" index="0" disallow="tram rail_urban rail rail_electric ship" speed="3.65" length="4.67" shape="368.44,672.38 367.22,673.14 366.33,673.17 365.76,672.48 365.53,671.05"/>
    </edge>
    <edge id=":2370547827_6" function="internal">
        <lane id=":2370547827_6_0" index="0" disallow="tram rail_urban rail rail_electric ship" speed="6.62" length="9.18" shape="358.04,674.14 360.43,674.75 362.47,674.44 364.17,673.21 365.53,671.05"/>
    </edge>
    <edge id=":2370547827_7" function="internal">
        <lane id=":2370547827_7_0" index="0" disallow="tram rail_urban rail rail_electric ship" speed="13.89" length="14.40" shape="358.04,674.14 371.32,679.70"/>
    </edge>
    <edge id=":2370547827_8" function="internal">
        <lane id=":2370547827_8_0" index="0" disallow="tram rail_urban rail rail_electric ship" speed="3.65" length="2.34" shape="358.04,674.14 358.84,675.34 358.90,676.23"/>
    </edge>
    <edge id=":2370547827_11" function="internal">
        <lane id=":2370547827_11_0" index="0" disallow="tram rail_urban rail rail_electric ship" speed="3.65" length="2.34" shape="358.90,676.23 358.22,676.82 356.80,677.09"/>
    </edge>
    <edge id=":2377100504_0" function="internal">
        <lane id=":2377100504_0_0" index="0" disallow="tram rail_urban rail rail_electric ship" speed="13.89" length="5.00" shape="503.36,534.94 501.19,530.44"/>
    </edge>
    <edge id=":2377100504_1" function="internal">
        <lane id=":2377100504_1_0" index="0" disallow="tram rail_urban rail rail_electric ship" speed="3.65" length="2.34" shape="503.36,534.94 503.56,533.52 504.11,532.81"/>
    </edge>
    <edge id=":2377100504_4" function="internal">
        <lane id=":2377100504_4_0" index="0" disallow="tram rail_urban rail rail_electric ship" speed="3.65" length="2.34" shape="504.11,532.81 505.00,532.82 506.24,533.56"/>
    </edge>
    <edge id=":2377100504_2" function="internal">
        <lane id=":2377100504_2_0" index="0" disallow="tram rail_urban rail rail_electric ship" speed="13.89" length="5.00" shape="504.08,529.05 506.24,533.56"/>
    </edge>
    <edge id=":2377100504_3" function="internal">
        <lane id=":2377100504_3_0" index="0" disallow="tram rail_urban rail rail_electric ship" speed="3.65" length="2.34" shape="504.08,529.05 503.88,530.48 503.33,531.19"/>
    </edge>
    <edge id=":2377100504_5" function="internal">
        <lane id=":2377100504_5_0" index="0" disallow="tram rail_urban rail rail_electric ship" speed="3.65" length="2.34" shape="503.33,531.19 502.43,531.17 501.19,530.44"/>
    </edge>
    <edge id=":2377100510_0" function="internal">
        <lane id=":2377100510_0_0" index="0" disallow="tram rail_urban rail rail_electric ship" speed="3.65" length="4.67" shape="486.94,538.57 488.17,537.81 489.07,537.78 489.63,538.48 489.85,539.90"/>
    </edge>
    <edge id=":2377100514_0" function="internal">
        <lane id=":2377100514_0_0" index="0" disallow="tram rail_urban rail rail_electric ship" speed="2.78" length="4.67" shape="509.96,557.44 511.37,557.13 512.22,557.39 512.52,558.24 512.27,559.66"/>
    </edge>
    <edge id=":2397425909_0" function="internal">
        <lane id=":2397425909_0_0" index="0" disallow="tram rail_urban rail rail_electric ship" speed="13.89" length="5.18" shape="610.83,444.02 606.17,441.76"/>
    </edge>
    <edge id=":2397425909_1" function="internal">
        <lane id=":2397425909_1_0" index="0" disallow="tram rail_urban rail rail_electric ship" speed="3.65" length="2.34" shape="610.83,444.02 610.10,442.78 610.09,441.88"/>
    </edge>
    <edge id=":2397425909_4" function="internal">
        <lane id=":2397425909_4_0" index="0" disallow="tram rail_urban rail rail_electric ship" speed="3.65" length="2.34" shape="610.09,441.88 610.80,441.34 612.23,441.14"/>
    </edge>
    <edge id=":2397425909_2" function="internal">
        <lane id=":2397425909_2_0" index="0" disallow="tram rail_urban rail rail_electric ship" speed="13.89" length="5.19" shape="607.56,438.88 612.23,441.14"/>
    </edge>
    <edge id=":2397425909_3" function="internal">
        <lane id=":2397425909_3_0" index="0" disallow="tram rail_urban rail rail_electric ship" speed="3.65" length="2.34" shape="607.56,438.88 608.29,440.12 608.31,441.02"/>
    </edge>
    <edge id=":2397425909_5" function="internal">
        <lane id=":2397425909_5_0" index="0" disallow="tram rail_urban rail rail_electric ship" speed="3.65" length="2.34" shape="608.31,441.02 607.60,441.57 606.17,441.76"/>
    </edge>
    <edge id=":249746677_0" function="internal">
        <lane id=":249746677_0_0" index="0" disallow="tram rail_urban rail rail_electric ship" speed="3.65" length="4.67" shape="323.81,795.53 322.38,795.72 321.55,795.39 321.32,794.52 321.69,793.13"/>
    </edge>
    <edge id=":368243961_0" function="internal">
        <lane id=":368243961_0_0" index="0" disallow="tram rail_urban rail rail_electric ship" speed="13.89" length="14.50" shape="149.97,441.45 145.66,427.61"/>
    </edge>
    <edge id=":368243961_1" function="internal">
        <lane id=":368243961_1_0" index="0" disallow="tram rail_urban rail rail_electric ship" speed="8.15" length="5.94" shape="149.97,441.45 149.34,437.67 149.83,435.62"/>
    </edge>
    <edge id=":368243961_2" function="internal">
        <lane id=":368243961_2_0" index="0" disallow="tram rail_urban rail rail_electric ship" speed="3.65" length="2.34" shape="149.97,441.45 150.36,440.06 151.00,439.44"/>
    </edge>
    <edge id=":368243961_9" function="internal">
        <lane id=":368243961_9_0" index="0" disallow="tram rail_urban rail rail_electric ship" speed="8.15" length="8.36" shape="149.83,435.62 150.08,434.53 152.21,432.04 155.71,430.18"/>
    </edge>
    <edge id=":368243961_10" function="internal">
        <lane id=":368243961_10_0" index="0" disallow="tram rail_urban rail rail_electric ship" speed="3.65" length="2.34" shape="151.00,439.44 151.88,439.57 153.01,440.47"/>
    </edge>
    <edge id=":368243961_3" function="internal">
        <lane id=":368243961_3_0" index="0" disallow="tram rail_urban rail rail_electric ship" speed="6.68" length="9.29" shape="156.81,433.18 154.51,434.39 153.12,436.01 152.61,438.04 153.01,440.47"/>
    </edge>
    <edge id=":368243961_4" function="internal">
        <lane id=":368243961_4_0" index="0" disallow="tram rail_urban rail rail_electric ship" speed="7.90" length="14.42" shape="156.81,433.18 152.92,434.01 149.76,433.35 147.34,431.22 145.66,427.61"/>
    </edge>
    <edge id=":368243961_5" function="internal">
        <lane id=":368243961_5_0" index="0" disallow="tram rail_urban rail rail_electric ship" speed="3.65" length="4.67" shape="156.81,433.18 155.41,432.84 154.76,432.23 154.86,431.34 155.71,430.18"/>
    </edge>
    <edge id=":368243961_6" function="internal">
        <lane id=":368243961_6_0" index="0" disallow="tram rail_urban rail rail_electric ship" speed="6.38" length="9.04" shape="148.72,426.68 149.77,428.95 151.29,430.29 153.27,430.70 155.71,430.18"/>
    </edge>
    <edge id=":368243961_7" function="internal">
        <lane id=":368243961_7_0" index="0" disallow="tram rail_urban rail rail_electric ship" speed="13.89" length="14.44" shape="148.72,426.68 153.01,440.47"/>
    </edge>
    <edge id=":368243961_8" function="internal">
        <lane id=":368243961_8_0" index="0" disallow="tram rail_urban rail rail_electric ship" speed="3.65" length="2.34" shape="148.72,426.68 148.30,428.06 147.65,428.68"/>
    </edge>
    <edge id=":368243961_11" function="internal">
        <lane id=":368243961_11_0" index="0" disallow="tram rail_urban rail rail_electric ship" speed="3.65" length="2.34" shape="147.65,428.68 146.77,428.53 145.66,427.61"/>
    </edge>
    <edge id=":368243972_0" function="internal">
        <lane id=":368243972_0_0" index="0" disallow="tram rail_urban rail rail_electric ship" speed="13.89" length="11.44" shape="434.63,651.89 432.27,649.68 430.21,648.09 428.44,646.33 427.00,643.57"/>
    </edge>
    <edge id=":368243972_1" function="internal">
        <lane id=":368243972_1_0" index="0" disallow="tram rail_urban rail rail_electric ship" speed="3.65" length="2.21" shape="434.63,651.89 434.43,650.46 434.71,649.75"/>
    </edge>
    <edge id=":368243972_6" function="internal">
        <lane id=":368243972_6_0" index="0" disallow="tram rail_urban rail rail_electric ship" speed="3.65" length="2.47" shape="434.71,649.75 434.76,649.63 435.62,649.40 437.02,649.76"/>
    </edge>
    <edge id=":368243972_2" function="internal">
        <lane id=":368243972_2_0" index="0" disallow="tram rail_urban rail rail_electric ship" speed="13.89" length="11.59" shape="429.52,641.12 430.94,643.93 432.66,645.80 434.68,647.50 437.02,649.76"/>
    </edge>
    <edge id=":368243972_3" function="internal">
        <lane id=":368243972_3_0" index="0" disallow="tram rail_urban rail rail_electric ship" speed="3.77" length="3.16" shape="429.52,641.12 429.81,642.67 429.49,643.60 428.92,643.78"/>
    </edge>
    <edge id=":368243972_7" function="internal">
        <lane id=":368243972_7_0" index="0" disallow="tram rail_urban rail rail_electric ship" speed="3.77" length="1.97" shape="428.92,643.78 428.55,643.90 427.00,643.57"/>
    </edge>
    <edge id=":368243972_4" function="internal">
        <lane id=":368243972_4_0" index="0" disallow="tram rail_urban rail rail_electric ship" speed="6.99" length="8.31" shape="426.23,651.29 427.34,650.04 427.83,648.34 427.72,646.18 427.00,643.57"/>
    </edge>
    <edge id=":368243972_5" function="internal">
        <lane id=":368243972_5_0" index="0" disallow="tram rail_urban rail rail_electric ship" speed="7.67" length="11.96" shape="426.23,651.29 429.67,649.19 432.62,648.23 435.07,648.42 437.02,649.76"/>
    </edge>
    <edge id=":446038575_0" function="internal">
        <lane id=":446038575_0_0" index="0" disallow="tram rail_urban rail rail_electric ship" speed="11.74" length="10.88" shape="294.84,165.97 291.94,164.84 289.66,164.45 287.35,164.70 284.33,165.53"/>
    </edge>
    <edge id=":446038575_1" function="internal">
        <lane id=":446038575_1_0" index="0" disallow="tram rail_urban rail rail_electric ship" speed="7.94" length="14.04" shape="294.84,165.97 290.74,163.70 288.19,161.22 287.20,158.54 287.78,155.65"/>
    </edge>
    <edge id=":446038575_2" function="internal">
        <lane id=":446038575_2_0" index="0" disallow="tram rail_urban rail rail_electric ship" speed="8.97" length="8.20" shape="283.40,162.46 284.24,161.87 285.25,160.53 286.43,158.46 287.78,155.65"/>
    </edge>
    <edge id=":446038575_3" function="internal">
        <lane id=":446038575_3_0" index="0" disallow="tram rail_urban rail rail_electric ship" speed="3.65" length="2.34" shape="283.40,162.46 284.78,162.88 285.40,163.53"/>
    </edge>
    <edge id=":446038575_4" function="internal">
        <lane id=":446038575_4_0" index="0" disallow="tram rail_urban rail rail_electric ship" speed="3.65" length="2.34" shape="285.40,163.53 285.25,164.42 284.33,165.53"/>
    </edge>
    <edge id=":446038576_0" function="internal">
        <lane id=":446038576_0_0" index="0" disallow="tram rail_urban rail rail_electric ship" speed="13.89" length="10.70" shape="391.42,254.47 384.15,246.62"/>
    </edge>
    <edge id=":446038576_1" function="internal">
        <lane id=":446038576_1_0" index="0" disallow="tram rail_urban rail rail_electric ship" speed="7.24" length="3.89" shape="391.42,254.47 390.23,252.33 390.28,250.88"/>
    </edge>
    <edge id=":446038576_2" function="internal">
        <lane id=":446038576_2_0" index="0" disallow="tram rail_urban rail rail_electric ship" speed="3.65" length="2.34" shape="391.42,254.47 391.22,253.04 391.55,252.21"/>
    </edge>
    <edge id=":446038576_6" function="internal">
        <lane id=":446038576_6_0" index="0" disallow="tram rail_urban rail rail_electric ship" speed="7.24" length="7.58" shape="390.28,250.88 390.31,249.98 391.65,247.43 394.26,244.67"/>
    </edge>
    <edge id=":446038576_7" function="internal">
        <lane id=":446038576_7_0" index="0" disallow="tram rail_urban rail rail_electric ship" speed="3.65" length="2.34" shape="391.55,252.21 392.41,251.97 393.81,252.34"/>
    </edge>
    <edge id=":446038576_3" function="internal">
        <lane id=":446038576_3_0" index="0" disallow="tram rail_urban rail rail_electric ship" speed="6.53" length="8.82" shape="386.46,244.40 388.34,245.87 390.27,246.41 392.24,246.00 394.26,244.67"/>
    </edge>
    <edge id=":446038576_4" function="internal">