<?xml version="1.0" encoding="UTF-8"?>

<!-- generated on 06/14/19 17:58:23 by Eclipse SUMO netconvert Version 1.2.0
<configuration xmlns:xsi="http://www.w3.org/2001/XMLSchema-instance" xsi:noNamespaceSchemaLocation="http://sumo.dlr.de/xsd/netconvertConfiguration.xsd">

    <input>
        <osm-files value="C:\Users\IOAN\Desktop\C4R\maps\OSMap.osm"/>
    </input>

    <output>
        <output-file value="New%202.net.xml"/>
    </output>

    <projection>
        <proj.utm value="true"/>
    </projection>

</configuration>
-->

<net version="1.1" junctionCornerDetail="5" limitTurnSpeed="5.50" xmlns:xsi="http://www.w3.org/2001/XMLSchema-instance" xsi:noNamespaceSchemaLocation="http://sumo.dlr.de/xsd/net_file.xsd">

    <location netOffset="-475284.13,-5551383.29" convBoundary="0.00,0.00,1543.60,993.33" origBoundary="8.654269,50.114244,8.675898,50.123134" projParameter="+proj=utm +zone=32 +ellps=WGS84 +datum=WGS84 +units=m +no_defs"/>

    <type id="highway.bridleway" priority="1" numLanes="1" speed="2.78" allow="pedestrian" oneway="1" width="2.00"/>
    <type id="highway.bus_guideway" priority="1" numLanes="1" speed="27.78" allow="bus" oneway="1"/>
    <type id="highway.cycleway" priority="1" numLanes="1" speed="8.33" allow="bicycle" oneway="0" width="1.00"/>
    <type id="highway.footway" priority="1" numLanes="1" speed="2.78" allow="pedestrian" oneway="1" width="2.00"/>
    <type id="highway.ford" priority="1" numLanes="1" speed="2.78" allow="army" oneway="0"/>
    <type id="highway.living_street" priority="2" numLanes="1" speed="2.78" disallow="tram rail_urban rail rail_electric ship" oneway="0"/>
    <type id="highway.motorway" priority="14" numLanes="2" speed="39.44" allow="private emergency authority army vip passenger hov taxi bus coach delivery truck trailer motorcycle evehicle custom1 custom2" oneway="1"/>
    <type id="highway.motorway_link" priority="9" numLanes="1" speed="22.22" allow="private emergency authority army vip passenger hov taxi bus coach delivery truck trailer motorcycle evehicle custom1 custom2" oneway="1"/>
    <type id="highway.path" priority="1" numLanes="1" speed="2.78" allow="bicycle pedestrian" oneway="1" width="2.00"/>
    <type id="highway.pedestrian" priority="1" numLanes="1" speed="2.78" allow="pedestrian" oneway="1" width="2.00"/>
    <type id="highway.primary" priority="12" numLanes="2" speed="27.78" disallow="tram rail_urban rail rail_electric ship" oneway="0"/>
    <type id="highway.primary_link" priority="7" numLanes="1" speed="22.22" disallow="tram rail_urban rail rail_electric ship" oneway="0"/>
    <type id="highway.raceway" priority="15" numLanes="2" speed="83.33" allow="vip" oneway="0"/>
    <type id="highway.residential" priority="3" numLanes="1" speed="13.89" disallow="tram rail_urban rail rail_electric ship" oneway="0"/>
    <type id="highway.secondary" priority="11" numLanes="2" speed="27.78" disallow="tram rail_urban rail rail_electric ship" oneway="0"/>
    <type id="highway.secondary_link" priority="6" numLanes="1" speed="22.22" disallow="tram rail_urban rail rail_electric ship" oneway="0"/>
    <type id="highway.service" priority="1" numLanes="1" speed="5.56" allow="delivery bicycle pedestrian" oneway="0"/>
    <type id="highway.stairs" priority="1" numLanes="1" speed="1.39" allow="pedestrian" oneway="1" width="2.00"/>
    <type id="highway.step" priority="1" numLanes="1" speed="1.39" allow="pedestrian" oneway="1" width="2.00"/>
    <type id="highway.steps" priority="1" numLanes="1" speed="1.39" allow="pedestrian" oneway="1" width="2.00"/>
    <type id="highway.tertiary" priority="10" numLanes="1" speed="22.22" disallow="tram rail_urban rail rail_electric ship" oneway="0"/>
    <type id="highway.tertiary_link" priority="5" numLanes="1" speed="22.22" disallow="tram rail_urban rail rail_electric ship" oneway="0"/>
    <type id="highway.track" priority="1" numLanes="1" speed="5.56" disallow="tram rail_urban rail rail_electric ship" oneway="0"/>
    <type id="highway.trunk" priority="13" numLanes="2" speed="27.78" disallow="tram rail_urban rail rail_electric bicycle pedestrian ship" oneway="0"/>
    <type id="highway.trunk_link" priority="8" numLanes="1" speed="22.22" disallow="tram rail_urban rail rail_electric bicycle pedestrian ship" oneway="0"/>
    <type id="highway.unclassified" priority="4" numLanes="1" speed="13.89" disallow="tram rail_urban rail rail_electric ship" oneway="0"/>
    <type id="highway.unsurfaced" priority="1" numLanes="1" speed="8.33" disallow="tram rail_urban rail rail_electric ship" oneway="0"/>
    <type id="railway.light_rail" priority="19" numLanes="1" speed="27.78" allow="rail_urban" oneway="1"/>
    <type id="railway.preserved" priority="16" numLanes="1" speed="27.78" allow="rail" oneway="1"/>
    <type id="railway.rail" priority="20" numLanes="1" speed="83.33" allow="rail rail_electric" oneway="1"/>
    <type id="railway.subway" priority="18" numLanes="1" speed="27.78" allow="rail_urban" oneway="1"/>
    <type id="railway.tram" priority="17" numLanes="1" speed="13.89" allow="tram" oneway="1"/>

    <edge id=":1014907500_0" function="internal">
        <lane id=":1014907500_0_0" index="0" disallow="tram rail_urban rail rail_electric ship" speed="13.89" length="5.84" shape="351.94,547.04 352.29,545.34 352.47,544.17 352.57,542.98 352.66,541.25"/>
    </edge>
    <edge id=":1275907441_0" function="internal">
        <lane id=":1275907441_0_0" index="0" disallow="tram rail_urban rail rail_electric ship" speed="13.89" length="0.27" shape="532.50,486.05 532.28,486.15"/>
        <lane id=":1275907441_0_1" index="1" disallow="tram rail_urban rail rail_electric ship" speed="13.89" length="0.27" shape="531.16,483.14 530.89,483.27"/>
    </edge>
    <edge id=":1275907441_2" function="internal">
        <lane id=":1275907441_2_0" index="0" disallow="tram rail_urban rail rail_electric ship" speed="13.89" length="0.34" shape="529.51,480.38 529.82,480.24"/>
    </edge>
    <edge id=":162590_0" function="internal">
        <lane id=":162590_0_0" index="0" disallow="tram rail_urban rail rail_electric ship" speed="7.77" length="12.35" shape="398.32,551.36 396.28,547.86 394.06,545.63 391.67,544.68 389.11,545.00"/>
    </edge>
    <edge id=":162590_1" function="internal">
        <lane id=":162590_1_0" index="0" disallow="tram rail_urban rail rail_electric ship" speed="11.11" length="20.40" shape="398.32,551.36 396.44,547.17 394.27,542.00 392.19,536.79 390.60,532.48"/>
    </edge>
    <edge id=":162590_2" function="internal">
        <lane id=":162590_2_0" index="0" disallow="tram rail_urban rail rail_electric ship" speed="8.47" length="17.32" shape="398.32,551.36 396.58,546.26 396.64,542.17 398.50,539.07 402.17,536.98"/>
    </edge>
    <edge id=":162590_3" function="internal">
        <lane id=":162590_3_0" index="0" disallow="tram rail_urban rail rail_electric ship" speed="3.65" length="4.67" shape="398.32,551.36 398.53,549.93 399.08,549.23 399.98,549.25 401.21,549.99"/>
    </edge>
    <edge id=":162590_4" function="internal">
        <lane id=":162590_4_0" index="0" disallow="tram rail_urban rail rail_electric ship" speed="6.25" length="8.91" shape="404.28,543.02 402.04,544.17 400.78,545.71 400.51,547.65 401.21,549.99"/>
    </edge>
    <edge id=":162590_5" function="internal">
        <lane id=":162590_5_0" index="0" disallow="tram rail_urban rail rail_electric ship" speed="13.89" length="15.37" shape="404.28,543.02 399.52,544.15 395.75,544.32 392.45,544.33 389.11,545.00"/>
    </edge>
    <edge id=":162590_6" function="internal">
        <lane id=":162590_6_0" index="0" disallow="tram rail_urban rail rail_electric ship" speed="8.62" length="8.49" shape="403.22,540.00 399.07,540.70 395.58,539.68 395.12,539.24"/>
    </edge>
    <edge id=":162590_7" function="internal">
        <lane id=":162590_7_0" index="0" disallow="tram rail_urban rail rail_electric ship" speed="3.65" length="2.56" shape="403.22,540.00 401.82,539.64 401.18,539.02 401.21,538.79"/>
    </edge>
    <edge id=":162590_15" function="internal">
        <lane id=":162590_15_0" index="0" disallow="tram rail_urban rail rail_electric ship" speed="8.62" length="8.25" shape="395.12,539.24 392.76,536.94 390.60,532.48"/>
    </edge>
    <edge id=":162590_16" function="internal">
        <lane id=":162590_16_0" index="0" disallow="tram rail_urban rail rail_electric ship" speed="3.65" length="2.11" shape="401.21,538.79 401.30,538.13 402.17,536.98"/>
    </edge>
    <edge id=":162590_8" function="internal">
        <lane id=":162590_8_0" index="0" disallow="tram rail_urban rail rail_electric ship" speed="7.26" length="11.56" shape="393.63,531.44 395.14,534.64 397.07,536.63 399.41,537.41 402.17,536.98"/>
    </edge>
    <edge id=":162590_9" function="internal">
        <lane id=":162590_9_0" index="0" disallow="tram rail_urban rail rail_electric ship" speed="11.11" length="20.04" shape="393.63,531.44 395.20,535.70 397.23,540.80 399.35,545.85 401.21,549.99"/>
    </edge>
    <edge id=":162590_10" function="internal">
        <lane id=":162590_10_0" index="0" disallow="tram rail_urban rail rail_electric ship" speed="8.56" length="16.16" shape="393.63,531.44 394.71,536.27 394.32,540.14 392.45,543.05 389.11,545.00"/>
    </edge>
    <edge id=":162590_11" function="internal">
        <lane id=":162590_11_0" index="0" disallow="tram rail_urban rail rail_electric ship" speed="3.65" length="4.67" shape="393.63,531.44 393.26,532.84 392.64,533.48 391.75,533.36 390.60,532.48"/>
    </edge>
    <edge id=":162590_12" function="internal">
        <lane id=":162590_12_0" index="0" disallow="tram rail_urban rail rail_electric ship" speed="6.36" length="8.47" shape="386.94,538.98 389.13,537.87 390.48,536.41 390.97,534.61 390.60,532.48"/>
    </edge>
    <edge id=":162590_13" function="internal">
        <lane id=":162590_13_0" index="0" disallow="tram rail_urban rail rail_electric ship" speed="13.89" length="15.44" shape="386.94,538.98 391.70,537.80 395.49,537.62 398.81,537.62 402.17,536.98"/>
    </edge>
    <edge id=":162590_14" function="internal">
        <lane id=":162590_14_0" index="0" disallow="tram rail_urban rail rail_electric ship" speed="3.65" length="2.57" shape="388.02,541.99 389.42,542.34 390.07,542.95 390.04,543.18"/>
    </edge>
    <edge id=":162590_17" function="internal">
        <lane id=":162590_17_0" index="0" disallow="tram rail_urban rail rail_electric ship" speed="3.65" length="2.11" shape="390.04,543.18 389.97,543.84 389.11,545.00"/>
    </edge>
    <edge id=":2525612945_0" function="internal">
        <lane id=":2525612945_0_0" index="0" disallow="tram rail_urban rail rail_electric ship" speed="13.89" length="5.37" shape="413.93,539.51 408.84,541.43"/>
        <lane id=":2525612945_0_1" index="1" disallow="tram rail_urban rail rail_electric ship" speed="13.89" length="5.37" shape="412.74,536.54 407.79,538.41"/>
    </edge>
    <edge id=":2525612945_2" function="internal">
        <lane id=":2525612945_2_0" index="0" disallow="tram rail_urban rail rail_electric ship" speed="3.65" length="2.34" shape="412.74,536.54 411.33,536.24 410.66,535.65"/>
    </edge>
    <edge id=":2525612945_5" function="internal">
        <lane id=":2525612945_5_0" index="0" disallow="tram rail_urban rail rail_electric ship" speed="3.65" length="2.34" shape="410.66,535.65 410.73,534.76 411.55,533.57"/>
    </edge>
    <edge id=":2525612945_3" function="internal">
        <lane id=":2525612945_3_0" index="0" disallow="tram rail_urban rail rail_electric ship" speed="13.89" length="5.14" shape="406.74,535.38 411.55,533.57"/>
    </edge>
    <edge id=":2525612945_4" function="internal">
        <lane id=":2525612945_4_0" index="0" disallow="tram rail_urban rail rail_electric ship" speed="3.65" length="2.34" shape="406.74,535.38 408.13,535.75 408.77,536.37"/>
    </edge>
    <edge id=":2525612945_6" function="internal">
        <lane id=":2525612945_6_0" index="0" disallow="tram rail_urban rail rail_electric ship" speed="3.65" length="2.34" shape="408.77,536.37 408.66,537.26 407.79,538.41"/>
    </edge>
    <edge id=":2525612953_0" function="internal">
        <lane id=":2525612953_0_0" index="0" disallow="tram rail_urban rail rail_electric ship" speed="13.89" length="5.25" shape="382.09,547.53 377.13,549.24"/>
    </edge>
    <edge id=":2525612953_1" function="internal">
        <lane id=":2525612953_1_0" index="0" disallow="tram rail_urban rail rail_electric ship" speed="3.65" length="2.34" shape="382.09,547.53 380.69,547.19 380.04,546.57"/>
    </edge>
    <edge id=":2525612953_5" function="internal">
        <lane id=":2525612953_5_0" index="0" disallow="tram rail_urban rail rail_electric ship" speed="3.65" length="2.34" shape="380.04,546.57 380.14,545.68 381.00,544.52"/>
    </edge>
    <edge id=":2525612953_2" function="internal">
        <lane id=":2525612953_2_0" index="0" disallow="tram rail_urban rail rail_electric ship" speed="13.89" length="5.10" shape="375.14,543.15 379.92,541.51"/>
        <lane id=":2525612953_2_1" index="1" disallow="tram rail_urban rail rail_electric ship" speed="13.89" length="5.10" shape="376.13,546.19 381.00,544.52"/>
    </edge>
    <edge id=":2525612953_4" function="internal">
        <lane id=":2525612953_4_0" index="0" disallow="tram rail_urban rail rail_electric ship" speed="3.65" length="2.34" shape="376.13,546.19 377.52,546.58 378.15,547.22"/>
    </edge>
    <edge id=":2525612953_6" function="internal">
        <lane id=":2525612953_6_0" index="0" disallow="tram rail_urban rail rail_electric ship" speed="3.65" length="2.34" shape="378.15,547.22 378.02,548.10 377.13,549.24"/>
    </edge>
    <edge id=":2753989571_0" function="internal">
        <lane id=":2753989571_0_0" index="0" disallow="tram rail_urban rail rail_electric ship" speed="13.89" length="0.30" shape="193.08,615.11 192.80,615.21"/>
    </edge>
    <edge id=":2753989571_1" function="internal">
        <lane id=":2753989571_1_0" index="0" disallow="tram rail_urban rail rail_electric ship" speed="13.89" length="0.30" shape="190.62,609.19 190.90,609.09"/>
        <lane id=":2753989571_1_1" index="1" disallow="tram rail_urban rail rail_electric ship" speed="13.89" length="0.30" shape="191.71,612.20 191.99,612.10"/>
    </edge>
    <edge id=":31266684_0" function="internal">
        <lane id=":31266684_0_0" index="0" disallow="tram rail_urban rail rail_electric ship" speed="13.89" length="11.34" shape="462.47,519.57 452.00,524.20"/>
        <lane id=":31266684_0_1" index="1" disallow="tram rail_urban rail rail_electric ship" speed="13.89" length="11.34" shape="461.09,516.69 450.81,521.23"/>
    </edge>
    <edge id=":31266684_2" function="internal">
        <lane id=":31266684_2_0" index="0" disallow="tram rail_urban rail rail_electric ship" speed="6.57" length="8.99" shape="449.61,518.26 451.69,517.04 452.90,515.42 453.24,513.38 452.71,510.94"/>
    </edge>
    <edge id=":31266684_3" function="internal">
        <lane id=":31266684_3_0" index="0" disallow="tram rail_urban rail rail_electric ship" speed="13.89" length="11.03" shape="449.61,518.26 459.71,513.80"/>
    </edge>
    <edge id=":31266684_4" function="internal">
        <lane id=":31266684_4_0" index="0" disallow="tram rail_urban rail rail_electric ship" speed="3.65" length="2.34" shape="449.61,518.26 451.02,518.55 451.69,519.15"/>
    </edge>
    <edge id=":31266684_5" function="internal">
        <lane id=":31266684_5_0" index="0" disallow="tram rail_urban rail rail_electric ship" speed="3.65" length="2.34" shape="451.69,519.15 451.62,520.04 450.81,521.23"/>
    </edge>
    <edge id=":31299062_0" function="internal">
        <lane id=":31299062_0_0" index="0" disallow="tram rail_urban rail rail_electric ship" speed="3.65" length="4.67" shape="302.66,289.84 302.98,288.44 303.59,287.78 304.48,287.87 305.65,288.70"/>
    </edge>
    <edge id=":31342753_0" function="internal">
        <lane id=":31342753_0_0" index="0" disallow="tram rail_urban rail rail_electric ship" speed="13.89" length="10.01" shape="357.82,555.54 348.32,558.72"/>
    </edge>
    <edge id=":31342753_1" function="internal">
        <lane id=":31342753_1_0" index="0" disallow="tram rail_urban rail rail_electric ship" speed="6.74" length="4.82" shape="357.82,555.54 354.33,556.04 353.20,555.40"/>
    </edge>
    <edge id=":31342753_2" function="internal">
        <lane id=":31342753_2_0" index="0" disallow="tram rail_urban rail rail_electric ship" speed="3.65" length="2.34" shape="357.82,555.54 356.43,555.15 355.80,554.51"/>
    </edge>
    <edge id=":31342753_7" function="internal">
        <lane id=":31342753_7_0" index="0" disallow="tram rail_urban rail rail_electric ship" speed="6.74" length="8.90" shape="353.20,555.40 352.18,554.82 351.37,551.88 351.90,547.23"/>
    </edge>
    <edge id=":31342753_8" function="internal">
        <lane id=":31342753_8_0" index="0" disallow="tram rail_urban rail rail_electric ship" speed="3.65" length="2.34" shape="355.80,554.51 355.93,553.63 356.82,552.50"/>
    </edge>
    <edge id=":31342753_3" function="internal">
        <lane id=":31342753_3_0" index="0" disallow="tram rail_urban rail rail_electric ship" speed="8.09" length="8.29" shape="346.14,552.70 348.36,551.68 350.06,550.43 351.24,548.95 351.90,547.23"/>
    </edge>
    <edge id=":31342753_4" function="internal">
        <lane id=":31342753_4_0" index="0" disallow="tram rail_urban rail rail_electric ship" speed="13.89" length="10.17" shape="346.14,552.70 355.83,549.46"/>
        <lane id=":31342753_4_1" index="1" disallow="tram rail_urban rail rail_electric ship" speed="13.89" length="10.17" shape="347.23,555.71 356.82,552.50"/>
    </edge>
    <edge id=":31342753_6" function="internal">
        <lane id=":31342753_6_0" index="0" disallow="tram rail_urban rail rail_electric ship" speed="3.65" length="2.34" shape="347.23,555.71 348.63,556.05 349.28,556.67"/>
    </edge>
    <edge id=":31342753_9" function="internal">
        <lane id=":31342753_9_0" index="0" disallow="tram rail_urban rail rail_electric ship" speed="3.65" length="2.34" shape="349.28,556.67 349.18,557.55 348.32,558.72"/>
    </edge>
    <edge id=":31342755_0" function="internal">
        <lane id=":31342755_0_0" index="0" disallow="tram rail_urban rail rail_electric ship" speed="11.11" length="0.69" shape="346.09,525.21 345.95,525.06 345.84,524.97 345.71,524.91 345.53,524.83"/>
    </edge>
    <edge id=":324749648_0" function="internal">
        <lane id=":324749648_0_0" index="0" disallow="tram rail_urban rail rail_electric ship" speed="6.06" length="4.77" shape="566.50,472.91 565.70,472.19 564.61,471.26 563.49,470.52 562.58,470.36"/>
    </edge>
    <edge id=":324749648_1" function="internal">
        <lane id=":324749648_1_0" index="0" disallow="tram rail_urban rail rail_electric ship" speed="4.08" length="6.40" shape="561.48,467.36 563.69,473.37"/>
    </edge>
    <edge id=":520423_0" function="internal">
        <lane id=":520423_0_0" index="0" disallow="tram rail_urban rail rail_electric ship" speed="3.65" length="4.67" shape="343.73,809.83 342.68,810.81 341.81,811.01 341.12,810.43 340.62,809.08"/>
    </edge>
    <edge id=":520424_0" function="internal">
        <lane id=":520424_0_0" index="0" disallow="tram rail_urban rail rail_electric ship" speed="6.57" length="8.89" shape="367.15,735.99 364.69,735.86 362.76,736.51 361.35,737.94 360.46,740.15"/>
    </edge>
    <edge id=":520424_1" function="internal">
        <lane id=":520424_1_0" index="0" disallow="tram rail_urban rail rail_electric ship" speed="7.11" length="11.58" shape="367.15,735.99 363.49,734.92 361.08,733.36 359.94,731.31 360.05,728.77"/>
    </edge>
    <edge id=":520424_2" function="internal">
        <lane id=":520424_2_0" index="0" disallow="tram rail_urban rail rail_electric ship" speed="8.33" length="10.89" shape="363.14,729.59 360.46,740.15"/>
    </edge>
    <edge id=":520424_3" function="internal">
        <lane id=":520424_3_0" index="0" disallow="tram rail_urban rail rail_electric ship" speed="3.65" length="4.67" shape="363.14,729.59 362.06,730.54 361.18,730.73 360.51,730.13 360.05,728.77"/>
    </edge>
    <edge id=":520424_4" function="internal">
        <lane id=":520424_4_0" index="0" disallow="tram rail_urban rail rail_electric ship" speed="8.33" length="10.97" shape="357.35,739.40 360.05,728.77"/>
    </edge>
    <edge id=":520424_5" function="internal">
        <lane id=":520424_5_0" index="0" disallow="tram rail_urban rail rail_electric ship" speed="3.65" length="4.67" shape="357.35,739.40 358.41,738.42 359.28,738.22 359.96,738.79 360.46,740.15"/>
    </edge>
    <edge id=":565440_0" function="internal">
        <lane id=":565440_0_0" index="0" disallow="tram rail_urban rail rail_electric ship" speed="8.33" length="11.12" shape="619.59,633.92 608.70,631.67"/>
    </edge>
    <edge id=":565440_1" function="internal">
        <lane id=":565440_1_0" index="0" disallow="tram rail_urban rail rail_electric ship" speed="6.45" length="8.96" shape="619.59,633.92 617.27,633.10 615.79,631.73 615.13,629.82 615.32,627.36"/>
    </edge>
    <edge id=":565440_2" function="internal">
        <lane id=":565440_2_0" index="0" disallow="tram rail_urban rail rail_electric ship" speed="6.52" length="8.98" shape="613.03,638.27 613.17,635.81 612.49,633.89 611.00,632.51 608.70,631.67"/>
    </edge>
    <edge id=":565440_3" function="internal">
        <lane id=":565440_3_0" index="0" disallow="tram rail_urban rail rail_electric ship" speed="8.33" length="11.14" shape="613.03,638.27 615.32,627.36"/>
    </edge>
    <edge id=":565443_0" function="internal">
        <lane id=":565443_0_0" index="0" disallow="tram rail_urban rail rail_electric ship" speed="6.54" length="9.01" shape="549.14,619.11 546.66,618.93 544.72,619.58 543.30,621.04 542.42,623.32"/>
    </edge>
    <edge id=":565443_1" function="internal">
        <lane id=":565443_1_0" index="0" disallow="tram rail_urban rail rail_electric ship" speed="6.37" length="8.93" shape="549.14,619.11 546.83,618.26 545.38,616.88 544.79,614.97 545.07,612.52"/>
    </edge>
    <edge id=":565484_0" function="internal">
        <lane id=":565484_0_0" index="0" disallow="tram rail_urban rail rail_electric ship" speed="6.56" length="8.99" shape="515.53,764.58 513.07,764.47 511.15,765.16 509.76,766.66 508.90,768.95"/>
    </edge>
    <edge id=":565484_1" function="internal">
        <lane id=":565484_1_0" index="0" disallow="tram rail_urban rail rail_electric ship" speed="8.33" length="11.07" shape="515.53,764.58 504.66,762.51"/>
    </edge>
    <edge id=":565484_2" function="internal">
        <lane id=":565484_2_0" index="0" disallow="tram rail_urban rail rail_electric ship" speed="8.33" length="11.07" shape="511.29,758.15 508.90,768.95"/>
    </edge>
    <edge id=":565484_3" function="internal">
        <lane id=":565484_3_0" index="0" disallow="tram rail_urban rail rail_electric ship" speed="6.56" length="9.00" shape="511.29,758.15 510.42,760.45 509.03,761.94 507.11,762.63 504.66,762.51"/>
    </edge>
    <edge id=":7226806_0" function="internal">
        <lane id=":7226806_0_0" index="0" disallow="tram rail_urban rail rail_electric ship" speed="3.65" length="4.67" shape="181.50,619.31 180.10,618.96 179.45,618.35 179.55,617.46 180.41,616.30"/>
    </edge>
    <edge id=":971801883_0" function="internal">
        <lane id=":971801883_0_0" index="0" disallow="tram rail_urban rail rail_electric ship" speed="8.33" length="4.60" shape="569.38,476.69 568.75,475.48 568.26,474.67 567.65,473.96 566.65,473.04"/>
    </edge>
    <edge id=":971801887_0" function="internal">
        <lane id=":971801887_0_0" index="0" disallow="tram rail_urban rail rail_electric ship" speed="8.33" length="5.76" shape="401.03,556.64 398.39,551.52"/>
    </edge>
    <edge id=":971801887_1" function="internal">
        <lane id=":971801887_1_0" index="0" disallow="tram rail_urban rail rail_electric ship" speed="3.65" length="2.34" shape="401.03,556.64 401.14,555.20 401.65,554.46"/>
    </edge>
    <edge id=":971801887_4" function="internal">
        <lane id=":971801887_4_0" index="0" disallow="tram rail_urban rail rail_electric ship" speed="3.65" length="2.34" shape="401.65,554.46 402.54,554.42 403.82,555.08"/>
    </edge>
    <edge id=":971801887_2" function="internal">
        <lane id=":971801887_2_0" index="0" disallow="tram rail_urban rail rail_electric ship" speed="8.33" length="5.55" shape="401.29,550.15 403.82,555.08"/>
    </edge>
    <edge id=":971801887_3" function="internal">
        <lane id=":971801887_3_0" index="0" disallow="tram rail_urban rail rail_electric ship" speed="3.65" length="2.34" shape="401.29,550.15 401.08,551.58 400.52,552.28"/>
    </edge>
    <edge id=":971801887_5" function="internal">
        <lane id=":971801887_5_0" index="0" disallow="tram rail_urban rail rail_electric ship" speed="3.65" length="2.34" shape="400.52,552.28 399.63,552.26 398.39,551.52"/>
    </edge>
    <edge id=":971826585_0" function="internal">
        <lane id=":971826585_0_0" index="0" disallow="tram rail_urban rail rail_electric ship" speed="13.89" length="4.49" shape="390.54,532.29 389.07,528.04"/>
    </edge>
    <edge id=":971826585_1" function="internal">
        <lane id=":971826585_1_0" index="0" disallow="tram rail_urban rail rail_electric ship" speed="3.65" length="2.34" shape="390.54,532.29 390.91,530.90 391.54,530.26"/>
    </edge>
    <edge id=":971826585_4" function="internal">
        <lane id=":971826585_4_0" index="0" disallow="tram rail_urban rail rail_electric ship" speed="3.65" length="2.34" shape="391.54,530.26 392.42,530.38 393.57,531.26"/>
    </edge>
    <edge id=":971826585_2" function="internal">
        <lane id=":971826585_2_0" index="0" disallow="tram rail_urban rail rail_electric ship" speed="13.89" length="4.51" shape="392.09,526.99 393.57,531.26"/>
    </edge>
    <edge id=":971826585_3" function="internal">
        <lane id=":971826585_3_0" index="0" disallow="tram rail_urban rail rail_electric ship" speed="3.65" length="2.34" shape="392.09,526.99 391.73,528.39 391.11,529.03"/>
    </edge>
    <edge id=":971826585_5" function="internal">
        <lane id=":971826585_5_0" index="0" disallow="tram rail_urban rail rail_electric ship" speed="3.65" length="2.34" shape="391.11,529.03 390.22,528.91 389.07,528.04"/>
    </edge>

    <edge id="-243103201#0" from="971801887" to="520424" priority="3" type="highway.residential" shape="401.02,553.33 404.87,560.26 404.44,568.37 360.14,734.64">
        <lane id="-243103201#0_0" index="0" disallow="tram rail_urban rail rail_electric ship" speed="8.33" length="180.83" shape="403.82,555.08 406.49,559.88 406.03,568.62 363.14,729.59"/>
    </edge>
    <edge id="-243103201#1" from="162590" to="971801887" priority="3" type="highway.residential">
        <lane id="-243103201#1_0" index="0" disallow="tram rail_urban rail rail_electric ship" speed="8.33" length="0.18" shape="401.21,549.99 401.29,550.15"/>
    </edge>
    <edge id="-30711331" from="520424" to="520423" priority="3" type="highway.residential">
        <lane id="-30711331_0" index="0" disallow="tram rail_urban rail rail_electric ship" speed="8.33" length="71.66" shape="360.46,740.15 343.73,809.83"/>
    </edge>
    <edge id="-34249959#0" from="2525612953" to="162590" priority="11" type="highway.secondary">
        <lane id="-34249959#0_0" index="0" disallow="tram rail_urban rail rail_electric ship" speed="13.89" length="7.46" shape="379.92,541.51 386.94,538.98"/>
        <lane id="-34249959#0_1" index="1" disallow="tram rail_urban rail rail_electric ship" speed="13.89" length="7.46" shape="381.00,544.52 388.02,541.99"/>
    </edge>
    <edge id="-34249959#1" from="31342753" to="2525612953" priority="11" type="highway.secondary">
        <lane id="-34249959#1_0" index="0" disallow="tram rail_urban rail rail_electric ship" speed="13.89" length="20.31" shape="355.83,549.46 375.14,543.15"/>
        <lane id="-34249959#1_1" index="1" disallow="tram rail_urban rail rail_electric ship" speed="13.89" length="20.31" shape="356.82,552.50 376.13,546.19"/>
    </edge>
    <edge id="-34249959#2" from="2753989571" to="31342753" priority="11" type="highway.secondary" shape="192.39,613.66 217.42,604.57 349.90,556.44">
        <lane id="-34249959#2_0" index="0" disallow="tram rail_urban rail rail_electric ship" speed="13.89" length="165.17" shape="190.90,609.09 215.78,600.06 346.14,552.70"/>
        <lane id="-34249959#2_1" index="1" disallow="tram rail_urban rail rail_electric ship" speed="13.89" length="165.17" shape="191.99,612.10 216.87,603.06 347.23,555.71"/>
    </edge>
    <edge id="-34249959#3" from="7226806" to="2753989571" priority="11" type="highway.secondary">
        <lane id="-34249959#3_0" index="0" disallow="tram rail_urban rail rail_electric ship" speed="13.89" length="12.02" shape="179.32,613.29 190.62,609.19"/>
        <lane id="-34249959#3_1" index="1" disallow="tram rail_urban rail rail_electric ship" speed="13.89" length="12.02" shape="180.41,616.30 191.71,612.20"/>
    </edge>
    <edge id="-4223113#0" from="971826585" to="162590" priority="3" type="highway.residential">
        <lane id="-4223113#0_0" index="0" disallow="tram rail_urban rail rail_electric ship" speed="13.89" length="0.20" shape="393.57,531.26 393.63,531.44"/>
    </edge>
    <edge id="-4223113#1" from="31299062" to="971826585" priority="3" type="highway.residential" shape="304.16,289.27 344.24,394.63 379.60,496.03 387.55,518.82 391.43,529.95">
        <lane id="-4223113#1_0" index="0" disallow="tram rail_urban rail rail_electric ship" speed="13.89" length="253.51" shape="305.65,288.70 345.74,394.08 381.11,495.50 389.06,518.29 392.09,526.99"/>
    </edge>