<?xml version="1.0" encoding="UTF-8"?>

<!-- generated on 06/12/19 13:43:41 by Eclipse SUMO netconvert Version 1.1.0
<configuration xmlns:xsi="http://www.w3.org/2001/XMLSchema-instance" xsi:noNamespaceSchemaLocation="http://sumo.dlr.de/xsd/netconvertConfiguration.xsd">

    <input>
        <osm-files value="./maps/OSMap.osm"/>
    </input>

    <output>
        <output-file value="New3.net.xml"/>
    </output>

    <projection>
        <proj.utm value="true"/>
    </projection>

</configuration>
-->

<net version="1.1" junctionCornerDetail="5" limitTurnSpeed="5.50" xmlns:xsi="http://www.w3.org/2001/XMLSchema-instance" xsi:noNamespaceSchemaLocation="http://sumo.dlr.de/xsd/net_file.xsd">

    <location netOffset="-476562.00,-5551020.49" convBoundary="0.00,0.00,1210.03,2454.13" origBoundary="8.672054,50.110981,8.689104,50.133042" projParameter="+proj=utm +zone=32 +ellps=WGS84 +datum=WGS84 +units=m +no_defs"/>

    <type id="highway.bridleway" priority="1" numLanes="1" speed="2.78" allow="pedestrian" oneway="1" width="2.00"/>
    <type id="highway.bus_guideway" priority="1" numLanes="1" speed="27.78" allow="bus" oneway="1"/>
    <type id="highway.cycleway" priority="1" numLanes="1" speed="8.33" allow="bicycle" oneway="0" width="1.00"/>
    <type id="highway.footway" priority="1" numLanes="1" speed="2.78" allow="pedestrian" oneway="1" width="2.00"/>
    <type id="highway.ford" priority="1" numLanes="1" speed="2.78" allow="army" oneway="0"/>
    <type id="highway.living_street" priority="3" numLanes="1" speed="2.78" disallow="tram rail_urban rail rail_electric ship" oneway="0"/>
    <type id="highway.motorway" priority="13" numLanes="2" speed="44.44" allow="private emergency authority army vip passenger hov taxi bus coach delivery truck trailer motorcycle evehicle custom1 custom2" oneway="1"/>
    <type id="highway.motorway_link" priority="12" numLanes="1" speed="22.22" allow="private emergency authority army vip passenger hov taxi bus coach delivery truck trailer motorcycle evehicle custom1 custom2" oneway="1"/>
    <type id="highway.path" priority="1" numLanes="1" speed="2.78" allow="bicycle pedestrian" oneway="1" width="2.00"/>
    <type id="highway.pedestrian" priority="1" numLanes="1" speed="2.78" allow="pedestrian" oneway="1" width="2.00"/>
    <type id="highway.primary" priority="9" numLanes="2" speed="27.78" disallow="tram rail_urban rail rail_electric ship" oneway="0"/>
    <type id="highway.primary_link" priority="8" numLanes="1" speed="22.22" disallow="tram rail_urban rail rail_electric ship" oneway="0"/>
    <type id="highway.raceway" priority="14" numLanes="2" speed="83.33" allow="vip" oneway="0"/>
    <type id="highway.residential" priority="4" numLanes="1" speed="13.89" disallow="tram rail_urban rail rail_electric ship" oneway="0"/>
    <type id="highway.secondary" priority="7" numLanes="2" speed="27.78" disallow="tram rail_urban rail rail_electric ship" oneway="0"/>
    <type id="highway.secondary_link" priority="6" numLanes="1" speed="22.22" disallow="tram rail_urban rail rail_electric ship" oneway="0"/>
    <type id="highway.service" priority="2" numLanes="1" speed="5.56" allow="delivery bicycle pedestrian" oneway="0"/>
    <type id="highway.stairs" priority="1" numLanes="1" speed="1.39" allow="pedestrian" oneway="1" width="2.00"/>
    <type id="highway.step" priority="1" numLanes="1" speed="1.39" allow="pedestrian" oneway="1" width="2.00"/>
    <type id="highway.steps" priority="1" numLanes="1" speed="1.39" allow="pedestrian" oneway="1" width="2.00"/>
    <type id="highway.tertiary" priority="6" numLanes="1" speed="22.22" disallow="tram rail_urban rail rail_electric ship" oneway="0"/>
    <type id="highway.tertiary_link" priority="5" numLanes="1" speed="22.22" disallow="tram rail_urban rail rail_electric ship" oneway="0"/>
    <type id="highway.track" priority="1" numLanes="1" speed="5.56" disallow="tram rail_urban rail rail_electric ship" oneway="0"/>
    <type id="highway.trunk" priority="11" numLanes="2" speed="27.78" disallow="tram rail_urban rail rail_electric bicycle pedestrian ship" oneway="0"/>
    <type id="highway.trunk_link" priority="10" numLanes="1" speed="22.22" disallow="tram rail_urban rail rail_electric bicycle pedestrian ship" oneway="0"/>
    <type id="highway.unclassified" priority="5" numLanes="1" speed="13.89" disallow="tram rail_urban rail rail_electric ship" oneway="0"/>
    <type id="highway.unsurfaced" priority="1" numLanes="1" speed="8.33" disallow="tram rail_urban rail rail_electric ship" oneway="0"/>
    <type id="railway.light_rail" priority="15" numLanes="1" speed="27.78" allow="rail_urban" oneway="1"/>
    <type id="railway.preserved" priority="15" numLanes="1" speed="27.78" allow="rail" oneway="1"/>
    <type id="railway.rail" priority="15" numLanes="1" speed="83.33" allow="rail rail_electric" oneway="1"/>
    <type id="railway.subway" priority="15" numLanes="1" speed="27.78" allow="rail_urban" oneway="1"/>
    <type id="railway.tram" priority="15" numLanes="1" speed="13.89" allow="tram" oneway="1"/>

    <edge id=":1166321672_0" function="internal">
        <lane id=":1166321672_0_0" index="0" disallow="tram rail_urban rail rail_electric ship" speed="13.89" length="5.01" shape="497.93,219.62 500.53,215.33"/>
    </edge>
    <edge id=":1503785806_0" function="internal">
        <lane id=":1503785806_0_0" index="0" allow="rail_urban" speed="27.78" length="0.10" shape="644.39,329.81 644.39,329.81"/>
    </edge>
    <edge id=":1503785812_0" function="internal">
        <lane id=":1503785812_0_0" index="0" allow="rail rail_electric" speed="16.67" length="2.99" shape="656.18,343.87 658.99,344.89"/>
    </edge>
    <edge id=":1503785812_1" function="internal">
        <lane id=":1503785812_1_0" index="0" allow="rail rail_electric" speed="16.67" length="3.02" shape="656.18,343.87 659.01,344.91"/>
    </edge>
    <edge id=":1503785824_0" function="internal">
        <lane id=":1503785824_0_0" index="0" allow="rail_urban" speed="27.78" length="0.25" shape="640.90,351.71 640.67,351.64"/>
    </edge>
    <edge id=":1852945335_0" function="internal">
        <lane id=":1852945335_0_0" index="0" disallow="tram rail_urban rail rail_electric ship" speed="13.89" length="6.50" shape="496.67,660.08 496.40,658.30 496.04,657.12 495.54,655.97 494.83,654.30"/>
        <lane id=":1852945335_0_1" index="1" disallow="tram rail_urban rail rail_electric ship" speed="13.89" length="6.50" shape="499.84,659.68 499.54,657.66 499.16,656.32 498.61,655.02 497.81,653.13"/>
    </edge>
    <edge id=":1852945335_2" function="internal">
        <lane id=":1852945335_2_0" index="0" allow="bicycle" speed="8.33" length="11.67" width="1.00" shape="492.14,655.74 503.06,659.86"/>
    </edge>
    <edge id=":1853077553_0" function="internal">
        <lane id=":1853077553_0_0" index="0" disallow="tram rail_urban rail rail_electric ship" speed="8.33" length="5.88" shape="511.89,349.57 511.70,347.84 511.53,346.66 511.30,345.49 510.92,343.78"/>
    </edge>
    <edge id=":1853077553_1" function="internal">
        <lane id=":1853077553_1_0" index="0" disallow="tram rail_urban rail rail_electric ship" speed="3.65" length="2.34" shape="511.89,349.57 512.56,348.30 513.32,347.82"/>
    </edge>
    <edge id=":1853077553_4" function="internal">
        <lane id=":1853077553_4_0" index="0" disallow="tram rail_urban rail rail_electric ship" speed="3.65" length="2.34" shape="513.32,347.82 514.16,348.14 515.07,349.26"/>
    </edge>
    <edge id=":1853077553_2" function="internal">
        <lane id=":1853077553_2_0" index="0" disallow="tram rail_urban rail rail_electric ship" speed="8.33" length="6.24" shape="514.05,343.11 514.45,344.92 514.69,346.16 514.87,347.42 515.07,349.26"/>
    </edge>
    <edge id=":1853077553_3" function="internal">
        <lane id=":1853077553_3_0" index="0" disallow="tram rail_urban rail rail_electric ship" speed="3.65" length="2.34" shape="514.05,343.11 513.52,344.45 512.83,345.01"/>
    </edge>
    <edge id=":1853077553_5" function="internal">
        <lane id=":1853077553_5_0" index="0" disallow="tram rail_urban rail rail_electric ship" speed="3.65" length="2.34" shape="512.83,345.01 511.96,344.79 510.92,343.78"/>
    </edge>
    <edge id=":1853077715_0" function="internal">
        <lane id=":1853077715_0_0" index="0" disallow="tram rail_urban rail rail_electric ship" speed="13.89" length="0.31" shape="525.38,488.84 525.36,488.53"/>
    </edge>
    <edge id=":1853077715_1" function="internal">
        <lane id=":1853077715_1_0" index="0" disallow="tram rail_urban rail rail_electric ship" speed="3.65" length="2.34" shape="525.38,488.84 526.05,487.56 526.81,487.08"/>
    </edge>
    <edge id=":1853077715_4" function="internal">
        <lane id=":1853077715_4_0" index="0" disallow="tram rail_urban rail rail_electric ship" speed="3.65" length="2.34" shape="526.81,487.08 527.64,487.39 528.57,488.50"/>
    </edge>
    <edge id=":1853077715_2" function="internal">
        <lane id=":1853077715_2_0" index="0" disallow="tram rail_urban rail rail_electric ship" speed="13.89" length="0.23" shape="528.54,488.27 528.57,488.50"/>
    </edge>
    <edge id=":1853077715_3" function="internal">
        <lane id=":1853077715_3_0" index="0" disallow="tram rail_urban rail rail_electric ship" speed="3.65" length="2.34" shape="528.54,488.27 527.84,489.53 527.08,489.99"/>
    </edge>
    <edge id=":1853077715_5" function="internal">
        <lane id=":1853077715_5_0" index="0" disallow="tram rail_urban rail rail_electric ship" speed="3.65" length="2.34" shape="527.08,489.99 526.25,489.66 525.36,488.53"/>
    </edge>
    <edge id=":1853199955_0" function="internal">
        <lane id=":1853199955_0_0" index="0" disallow="tram rail_urban rail rail_electric ship" speed="13.89" length="0.19" shape="854.69,611.54 854.64,611.54 854.60,611.54 854.56,611.55 854.51,611.56"/>
    </edge>
    <edge id=":1853199955_1" function="internal">
        <lane id=":1853199955_1_0" index="0" disallow="tram rail_urban rail rail_electric ship" speed="3.69" length="2.33" shape="854.69,611.54 853.50,610.73 853.11,609.93"/>
    </edge>
    <edge id=":1853199955_4" function="internal">
        <lane id=":1853199955_4_0" index="0" disallow="tram rail_urban rail rail_electric ship" speed="3.69" length="2.33" shape="853.11,609.93 853.52,609.14 854.73,608.35"/>
    </edge>
    <edge id=":1853199955_2" function="internal">
        <lane id=":1853199955_2_0" index="0" disallow="tram rail_urban rail rail_electric ship" speed="13.89" length="0.55" shape="854.17,608.38 854.34,608.36 854.45,608.35 854.56,608.35 854.73,608.35"/>
    </edge>
    <edge id=":1853199955_3" function="internal">
        <lane id=":1853199955_3_0" index="0" disallow="tram rail_urban rail rail_electric ship" speed="3.65" length="2.34" shape="854.17,608.38 855.45,609.05 855.93,609.80"/>
    </edge>
    <edge id=":1853199955_5" function="internal">
        <lane id=":1853199955_5_0" index="0" disallow="tram rail_urban rail rail_electric ship" speed="3.65" length="2.34" shape="855.93,609.80 855.62,610.64 854.51,611.56"/>
    </edge>
    <edge id=":1857753165_0" function="internal">
        <lane id=":1857753165_0_0" index="0" disallow="tram rail_urban rail rail_electric ship" speed="18.05" length="11.43" shape="561.14,649.98 560.60,653.31 559.24,655.34 557.51,657.30 555.83,660.43"/>
        <lane id=":1857753165_0_1" index="1" disallow="tram rail_urban rail rail_electric ship" speed="18.05" length="11.43" shape="557.94,650.00 557.41,652.99 556.08,654.77 554.40,656.49 552.84,659.30"/>
    </edge>
    <edge id=":1857753165_2" function="internal">
        <lane id=":1857753165_2_0" index="0" disallow="tram rail_urban rail rail_electric ship" speed="3.65" length="2.34" shape="554.74,650.02 553.94,651.22 553.15,651.63"/>
    </edge>
    <edge id=":1857753165_4" function="internal">
        <lane id=":1857753165_4_0" index="0" disallow="tram rail_urban rail rail_electric ship" speed="3.65" length="2.34" shape="553.15,651.63 552.34,651.23 551.54,650.03"/>
    </edge>
    <edge id=":1857753165_3" function="internal">
        <lane id=":1857753165_3_0" index="0" disallow="tram rail_urban rail rail_electric ship" speed="18.05" length="8.59" shape="550.97,658.59 551.30,656.06 551.47,654.33 551.54,652.58 551.54,650.03"/>
    </edge>
    <edge id=":1857753304_0" function="internal">
        <lane id=":1857753304_0_0" index="0" disallow="tram rail_urban rail rail_electric ship" speed="13.89" length="0.65" shape="536.34,688.94 536.46,689.20 536.54,689.38 536.60,689.57 536.68,689.85"/>
        <lane id=":1857753304_0_1" index="1" disallow="tram rail_urban rail rail_electric ship" speed="13.89" length="0.65" shape="533.47,690.36 533.51,690.44 533.54,690.50 533.56,690.57 533.58,690.66"/>
    </edge>
    <edge id=":2116446605_0" function="internal">
        <lane id=":2116446605_0_0" index="0" allow="bicycle" speed="2.04" length="1.46" width="1.00" shape="474.70,647.02 474.47,646.64 474.46,646.36 474.68,646.19 475.13,646.12"/>
    </edge>
    <edge id=":2116446609_0" function="internal">
        <lane id=":2116446609_0_0" index="0" allow="bicycle" speed="2.04" length="1.46" width="1.00" shape="481.54,646.54 481.59,646.10 481.76,645.87 482.03,645.87 482.43,646.08"/>
    </edge>
    <edge id=":2116446610_0" function="internal">
        <lane id=":2116446610_0_0" index="0" disallow="tram rail_urban rail rail_electric ship" speed="13.89" length="5.09" shape="558.59,679.79 563.63,680.16"/>
        <lane id=":2116446610_0_1" index="1" disallow="tram rail_urban rail rail_electric ship" speed="13.89" length="5.09" shape="558.35,682.98 563.43,683.36"/>
        <lane id=":2116446610_0_2" index="2" disallow="tram rail_urban rail rail_electric ship" speed="13.89" length="5.09" shape="558.11,686.17 563.23,686.55"/>
    </edge>
    <edge id=":2116446624_0" function="internal">
        <lane id=":2116446624_0_0" index="0" allow="bicycle" speed="6.30" length="5.92" width="1.00" shape="469.60,646.32 473.10,651.09"/>
    </edge>
    <edge id=":2116446624_1" function="internal">
        <lane id=":2116446624_1_0" index="0" disallow="tram rail_urban rail rail_electric ship" speed="13.89" length="9.40" shape="469.21,647.34 478.05,650.85"/>
        <lane id=":2116446624_1_1" index="1" disallow="tram rail_urban rail rail_electric ship" speed="13.89" length="9.40" shape="468.06,650.33 476.85,653.82"/>
        <lane id=":2116446624_1_2" index="2" disallow="tram rail_urban rail rail_electric ship" speed="13.89" length="9.40" shape="466.92,653.32 475.65,656.79"/>
        <lane id=":2116446624_1_3" index="3" disallow="tram rail_urban rail rail_electric ship" speed="13.89" length="9.40" shape="465.77,656.31 474.45,659.75"/>
        <lane id=":2116446624_1_4" index="4" disallow="tram rail_urban rail rail_electric ship" speed="13.89" length="9.40" shape="464.63,659.29 473.25,662.72"/>
    </edge>
    <edge id=":2116446628_0" function="internal">
        <lane id=":2116446628_0_0" index="0" disallow="tram rail_urban rail rail_electric ship" speed="13.89" length="4.87" shape="487.18,642.42 483.63,639.22"/>
        <lane id=":2116446628_0_1" index="1" disallow="tram rail_urban rail rail_electric ship" speed="13.89" length="4.87" shape="489.46,640.16 485.77,636.84"/>
    </edge>
    <edge id=":218088686_0" function="internal">
        <lane id=":218088686_0_0" index="0" disallow="tram rail_urban rail rail_electric ship" speed="13.89" length="10.45" shape="494.76,654.12 493.67,651.27 492.84,649.33 491.73,647.56 489.81,645.21"/>
        <lane id=":218088686_0_1" index="1" disallow="tram rail_urban rail rail_electric ship" speed="13.89" length="10.45" shape="497.74,652.94 496.62,649.99 495.80,647.97 494.69,646.12 492.72,643.69"/>
    </edge>
    <edge id=":218088686_2" function="internal">
        <lane id=":218088686_2_0" index="0" disallow="tram rail_urban rail rail_electric ship" speed="6.91" length="9.05" shape="500.79,645.18 498.63,646.10 496.57,646.17 494.60,645.36 492.72,643.69"/>
    </edge>
    <edge id=":218098808_0" function="internal">
        <lane id=":218098808_0_0" index="0" disallow="tram rail_urban rail rail_electric ship" speed="13.89" length="4.88" shape="654.15,703.59 658.87,705.13"/>
        <lane id=":218098808_0_1" index="1" disallow="tram rail_urban rail rail_electric ship" speed="13.89" length="4.88" shape="653.20,706.65 657.84,708.16"/>
        <lane id=":218098808_0_2" index="2" disallow="tram rail_urban rail rail_electric ship" speed="13.89" length="4.88" shape="652.25,709.70 656.82,711.19"/>
    </edge>
    <edge id=":218102332_0" function="internal">
        <lane id=":218102332_0_0" index="0" disallow="tram rail_urban rail rail_electric ship" speed="16.34" length="15.88" shape="515.06,664.85 519.28,667.58 521.85,671.13 523.97,673.98 526.82,674.60"/>
    </edge>
    <edge id=":218102332_1" function="internal">
        <lane id=":218102332_1_0" index="0" disallow="tram rail_urban rail rail_electric ship" speed="13.89" length="26.42" shape="515.06,664.85 522.28,667.83 526.93,670.63 531.63,673.28 538.97,675.86"/>
        <lane id=":218102332_1_1" index="1" disallow="tram rail_urban rail rail_electric ship" speed="13.89" length="26.42" shape="514.05,667.89 521.27,670.87 525.92,673.67 530.62,676.33 537.96,678.90"/>
        <lane id=":218102332_1_2" index="2" disallow="tram rail_urban rail rail_electric ship" speed="13.89" length="26.42" shape="513.04,670.92 520.26,673.91 524.92,676.71 529.61,679.37 536.95,681.94"/>
    </edge>
    <edge id=":218102332_4" function="internal">
        <lane id=":218102332_4_0" index="0" disallow="tram rail_urban rail rail_electric ship" speed="13.89" length="24.90" shape="511.03,677.00 515.04,678.30 522.96,680.91 530.79,683.63 534.52,685.25"/>
    </edge>
    <edge id=":218102332_5" function="internal">
        <lane id=":218102332_5_0" index="0" disallow="tram rail_urban rail rail_electric ship" speed="18.05" length="16.80" shape="511.81,681.43 515.91,678.07 519.67,676.31 523.25,675.41 526.82,674.60"/>
    </edge>
    <edge id=":218102332_6" function="internal">
        <lane id=":218102332_6_0" index="0" disallow="tram rail_urban rail rail_electric ship" speed="13.61" length="26.16" shape="513.61,684.16 518.56,680.33 524.27,678.18 530.74,677.70 537.96,678.90"/>
    </edge>
    <edge id=":218102332_7" function="internal">
        <lane id=":218102332_7_0" index="0" disallow="tram rail_urban rail rail_electric ship" speed="12.83" length="23.17" shape="515.46,686.85 519.90,683.38 524.97,681.40 530.65,680.92 536.95,681.94"/>
    </edge>
    <edge id=":218102332_8" function="internal">
        <lane id=":218102332_8_0" index="0" disallow="tram rail_urban rail rail_electric ship" speed="8.54" length="20.50" shape="515.46,686.85 520.54,682.72 524.97,681.40 528.75,682.86 531.87,687.12"/>
    </edge>
    <edge id=":2194701490_0" function="internal">
        <lane id=":2194701490_0_0" index="0" disallow="tram rail_urban rail rail_electric ship" speed="13.89" length="5.06" shape="548.88,624.27 547.79,619.33"/>
    </edge>
    <edge id=":2194701490_1" function="internal">
        <lane id=":2194701490_1_0" index="0" disallow="tram rail_urban rail rail_electric ship" speed="3.65" length="2.34" shape="548.88,624.27 549.40,622.92 550.10,622.36"/>
    </edge>
    <edge id=":2194701490_5" function="internal">
        <lane id=":2194701490_5_0" index="0" disallow="tram rail_urban rail rail_electric ship" speed="3.65" length="2.34" shape="550.10,622.36 550.96,622.58 552.00,623.58"/>
    </edge>
    <edge id=":2194701490_2" function="internal">
        <lane id=":2194701490_2_0" index="0" disallow="tram rail_urban rail rail_electric ship" speed="13.89" length="5.06" shape="554.04,617.95 555.13,622.89"/>
        <lane id=":2194701490_2_1" index="1" disallow="tram rail_urban rail rail_electric ship" speed="13.89" length="5.06" shape="550.91,618.64 552.00,623.58"/>
    </edge>
    <edge id=":2194701490_4" function="internal">
        <lane id=":2194701490_4_0" index="0" disallow="tram rail_urban rail rail_electric ship" speed="3.65" length="2.34" shape="550.91,618.64 550.39,619.98 549.70,620.54"/>
    </edge>
    <edge id=":2194701490_6" function="internal">
        <lane id=":2194701490_6_0" index="0" disallow="tram rail_urban rail rail_electric ship" speed="3.65" length="2.34" shape="549.70,620.54 548.83,620.33 547.79,619.33"/>
    </edge>
    <edge id=":2194701503_0" function="internal">
        <lane id=":2194701503_0_0" index="0" disallow="tram rail_urban rail rail_electric ship" speed="13.89" length="4.25" shape="550.68,637.82 550.22,633.59"/>
    </edge>
    <edge id=":2194701503_1" function="internal">
        <lane id=":2194701503_1_0" index="0" disallow="tram rail_urban rail rail_electric ship" speed="3.65" length="2.34" shape="550.68,637.82 551.35,636.54 552.10,636.05"/>
    </edge>
    <edge id=":2194701503_6" function="internal">
        <lane id=":2194701503_6_0" index="0" disallow="tram rail_urban rail rail_electric ship" speed="3.65" length="2.34" shape="552.10,636.05 552.94,636.36 553.87,637.47"/>
    </edge>
    <edge id=":2194701503_2" function="internal">
        <lane id=":2194701503_2_0" index="0" disallow="tram rail_urban rail rail_electric ship" speed="13.89" length="4.25" shape="559.76,632.54 560.23,636.77"/>
        <lane id=":2194701503_2_1" index="1" disallow="tram rail_urban rail rail_electric ship" speed="13.89" length="4.25" shape="556.58,632.89 557.05,637.12"/>
        <lane id=":2194701503_2_2" index="2" disallow="tram rail_urban rail rail_electric ship" speed="13.89" length="4.25" shape="553.40,633.24 553.87,637.47"/>
    </edge>
    <edge id=":2194701503_5" function="internal">
        <lane id=":2194701503_5_0" index="0" disallow="tram rail_urban rail rail_electric ship" speed="3.65" length="2.34" shape="553.40,633.24 552.74,634.52 551.98,635.01"/>
    </edge>
    <edge id=":2194701503_7" function="internal">
        <lane id=":2194701503_7_0" index="0" disallow="tram rail_urban rail rail_electric ship" speed="3.65" length="2.34" shape="551.98,635.01 551.15,634.70 550.22,633.59"/>
    </edge>
    <edge id=":2194701506_0" function="internal">
        <lane id=":2194701506_0_0" index="0" disallow="tram rail_urban rail rail_electric ship" speed="2.78" length="4.61" shape="502.86,634.02 505.17,638.01"/>
    </edge>
    <edge id=":2380676641_0" function="internal">
        <lane id=":2380676641_0_0" index="0" disallow="tram rail_urban rail rail_electric ship" speed="13.89" length="9.27" shape="847.62,225.41 844.93,234.28"/>
    </edge>
    <edge id=":2380676641_1" function="internal">
        <lane id=":2380676641_1_0" index="0" allow="delivery bicycle pedestrian" speed="6.92" length="5.02" shape="847.62,225.41 846.42,227.87 844.71,229.38"/>
    </edge>
    <edge id=":2380676641_2" function="internal">
        <lane id=":2380676641_2_0" index="0" disallow="tram rail_urban rail rail_electric ship" speed="3.65" length="2.34" shape="847.62,225.41 846.49,226.31 845.61,226.45"/>
    </edge>
    <edge id=":2380676641_9" function="internal">
        <lane id=":2380676641_9_0" index="0" allow="delivery bicycle pedestrian" speed="6.92" length="5.08" shape="844.71,229.38 842.48,229.94 839.73,229.56"/>
    </edge>
    <edge id=":2380676641_10" function="internal">
        <lane id=":2380676641_10_0" index="0" disallow="tram rail_urban rail rail_electric ship" speed="3.65" length="2.34" shape="845.61,226.45 844.97,225.82 844.57,224.44"/>
    </edge>
    <edge id=":2380676641_3" function="internal">
        <lane id=":2380676641_3_0" index="0" disallow="tram rail_urban rail rail_electric ship" speed="5.11" length="5.05" shape="840.61,226.48 841.99,226.68 843.11,226.40 843.97,225.66 844.57,224.44"/>
    </edge>
    <edge id=":2380676641_4" function="internal">
        <lane id=":2380676641_4_0" index="0" disallow="tram rail_urban rail rail_electric ship" speed="6.86" length="10.18" shape="840.61,226.48 843.15,227.62 844.72,229.30 845.31,231.52 844.93,234.28"/>
    </edge>
    <edge id=":2380676641_5" function="internal">
        <lane id=":2380676641_5_0" index="0" allow="delivery bicycle pedestrian" speed="3.65" length="4.67" shape="840.61,226.48 841.54,227.58 841.71,228.46 841.10,229.12 839.73,229.56"/>
    </edge>
    <edge id=":2380676641_6" function="internal">
        <lane id=":2380676641_6_0" index="0" allow="delivery bicycle pedestrian" speed="5.04" length="5.00" shape="841.85,233.39 842.04,232.03 841.75,230.94 840.98,230.12 839.73,229.56"/>
    </edge>
    <edge id=":2380676641_7" function="internal">
        <lane id=":2380676641_7_0" index="0" disallow="tram rail_urban rail rail_electric ship" speed="13.89" length="9.36" shape="841.85,233.39 844.57,224.44"/>
    </edge>
    <edge id=":2380676641_8" function="internal">
        <lane id=":2380676641_8_0" index="0" disallow="tram rail_urban rail rail_electric ship" speed="3.65" length="2.34" shape="841.85,233.39 842.95,232.46 843.83,232.30"/>
    </edge>
    <edge id=":2380676641_11" function="internal">
        <lane id=":2380676641_11_0" index="0" disallow="tram rail_urban rail rail_electric ship" speed="3.65" length="2.34" shape="843.83,232.30 844.49,232.91 844.93,234.28"/>
    </edge>
    <edge id=":2485285464_0" function="internal">
        <lane id=":2485285464_0_0" index="0" disallow="tram rail_urban rail rail_electric ship" speed="3.65" length="4.67" shape="977.36,641.75 978.15,642.96 978.20,643.85 977.52,644.43 976.10,644.69"/>
    </edge>
    <edge id=":2547248771_0" function="internal">
        <lane id=":2547248771_0_0" index="0" disallow="tram rail_urban rail rail_electric ship" speed="6.51" length="7.78" shape="812.45,348.46 811.36,350.43 809.99,351.71 808.35,352.30 806.43,352.21"/>
    </edge>
    <edge id=":255603848_0" function="internal">
        <lane id=":255603848_0_0" index="0" disallow="tram rail_urban rail rail_electric ship" speed="8.26" length="4.07" shape="718.18,602.71 717.34,601.86 716.66,601.37 715.87,601.08 714.70,600.81"/>
    </edge>
    <edge id=":255603848_1" function="internal">
        <lane id=":255603848_1_0" index="0" disallow="tram rail_urban rail rail_electric ship" speed="7.90" length="3.97" shape="715.35,597.68 716.50,597.89 717.32,597.91 718.11,597.71 719.18,597.24"/>
    </edge>
    <edge id=":255603848_2" function="internal">
        <lane id=":255603848_2_0" index="0" disallow="tram rail_urban rail rail_electric ship" speed="3.65" length="2.34" shape="715.35,597.68 716.37,598.71 716.60,599.57"/>
    </edge>
    <edge id=":255603848_3" function="internal">
        <lane id=":255603848_3_0" index="0" disallow="tram rail_urban rail rail_electric ship" speed="3.65" length="2.34" shape="716.60,599.57 716.04,600.27 714.70,600.81"/>
    </edge>
    <edge id=":255603876_0" function="internal">
        <lane id=":255603876_0_0" index="0" disallow="tram rail_urban rail rail_electric ship" speed="6.02" length="9.05" shape="752.37,735.97 754.90,736.41 756.76,735.85 757.94,734.31 758.46,731.77"/>
    </edge>
    <edge id=":255603876_1" function="internal">
        <lane id=":255603876_1_0" index="0" disallow="tram rail_urban rail rail_electric ship" speed="13.89" length="11.10" shape="752.37,735.97 763.02,739.69"/>
        <lane id=":255603876_1_1" index="1" disallow="tram rail_urban rail rail_electric ship" speed="13.89" length="11.10" shape="751.38,739.01 761.86,742.67"/>
        <lane id=":255603876_1_2" index="2" disallow="tram rail_urban rail rail_electric ship" speed="13.89" length="11.10" shape="750.39,742.06 760.69,745.66"/>
    </edge>
    <edge id=":2559986995_0" function="internal">
        <lane id=":2559986995_0_0" index="0" disallow="tram rail_urban rail rail_electric ship" speed="13.89" length="7.61" shape="695.53,582.89 691.44,589.31"/>
    </edge>
    <edge id=":2559986995_1" function="internal">
        <lane id=":2559986995_1_0" index="0" disallow="tram rail_urban rail rail_electric ship" speed="3.65" length="2.34" shape="695.53,582.89 694.21,583.48 693.32,583.39"/>
    </edge>
    <edge id=":2559986995_4" function="internal">
        <lane id=":2559986995_4_0" index="0" disallow="tram rail_urban rail rail_electric ship" speed="3.65" length="2.34" shape="693.32,583.39 692.86,582.63 692.82,581.18"/>
    </edge>
    <edge id=":2559986995_2" function="internal">
        <lane id=":2559986995_2_0" index="0" disallow="tram rail_urban rail rail_electric ship" speed="13.89" length="7.57" shape="688.75,587.57 692.82,581.18"/>
    </edge>
    <edge id=":2559986995_3" function="internal">
        <lane id=":2559986995_3_0" index="0" disallow="tram rail_urban rail rail_electric ship" speed="3.65" length="2.34" shape="688.75,587.57 690.08,587.00 690.97,587.10"/>
    </edge>
    <edge id=":2559986995_5" function="internal">
        <lane id=":2559986995_5_0" index="0" disallow="tram rail_urban rail rail_electric ship" speed="3.65" length="2.34" shape="690.97,587.10 691.42,587.87 691.44,589.31"/>
    </edge>
    <edge id=":2559986998_0" function="internal">
        <lane id=":2559986998_0_0" index="0" disallow="tram rail_urban rail rail_electric ship" speed="13.89" length="5.93" shape="790.68,598.65 790.45,600.40 790.29,601.60 790.22,602.80 790.25,604.55"/>
    </edge>
    <edge id=":2559986998_1" function="internal">
        <lane id=":2559986998_1_0" index="0" disallow="tram rail_urban rail rail_electric ship" speed="3.65" length="2.34" shape="790.68,598.65 789.75,599.75 788.90,600.06"/>
    </edge>
    <edge id=":2559986998_3" function="internal">
        <lane id=":2559986998_3_0" index="0" disallow="tram rail_urban rail rail_electric ship" speed="3.65" length="2.34" shape="788.90,600.06 788.16,599.57 787.50,598.28"/>
    </edge>