<?xml version="1.0" encoding="UTF-8"?>

<!-- generated on 06/14/19 12:58:50 by Eclipse SUMO netconvert Version 1.1.0
<configuration xmlns:xsi="http://www.w3.org/2001/XMLSchema-instance" xsi:noNamespaceSchemaLocation="http://sumo.dlr.de/xsd/netconvertConfiguration.xsd">

    <input>
        <osm-files value="./maps/OSMap.osm"/>
    </input>

    <output>
        <output-file value="New4.net.xml"/>
    </output>

    <projection>
        <proj.utm value="true"/>
    </projection>

</configuration>
-->

<net version="1.1" junctionCornerDetail="5" limitTurnSpeed="5.50" xmlns:xsi="http://www.w3.org/2001/XMLSchema-instance" xsi:noNamespaceSchemaLocation="http://sumo.dlr.de/xsd/net_file.xsd">

    <location netOffset="-477183.93,-5549802.17" convBoundary="0.00,0.00,1029.64,723.24" origBoundary="8.679044,50.089367,8.701513,50.106573" projParameter="+proj=utm +zone=32 +ellps=WGS84 +datum=WGS84 +units=m +no_defs"/>

    <type id="highway.bridleway" priority="1" numLanes="1" speed="2.78" allow="pedestrian" oneway="1" width="2.00"/>
    <type id="highway.bus_guideway" priority="1" numLanes="1" speed="27.78" allow="bus" oneway="1"/>
    <type id="highway.cycleway" priority="1" numLanes="1" speed="8.33" allow="bicycle" oneway="0" width="1.00"/>
    <type id="highway.footway" priority="1" numLanes="1" speed="2.78" allow="pedestrian" oneway="1" width="2.00"/>
    <type id="highway.ford" priority="1" numLanes="1" speed="2.78" allow="army" oneway="0"/>
    <type id="highway.living_street" priority="3" numLanes="1" speed="2.78" disallow="tram rail_urban rail rail_electric ship" oneway="0"/>
    <type id="highway.motorway" priority="13" numLanes="2" speed="44.44" allow="private emergency authority army vip passenger hov taxi bus coach delivery truck trailer motorcycle evehicle custom1 custom2" oneway="1"/>
    <type id="highway.motorway_link" priority="12" numLanes="1" speed="22.22" allow="private emergency authority army vip passenger hov taxi bus coach delivery truck trailer motorcycle evehicle custom1 custom2" oneway="1"/>
    <type id="highway.path" priority="1" numLanes="1" speed="2.78" allow="bicycle pedestrian" oneway="1" width="2.00"/>
    <type id="highway.pedestrian" priority="1" numLanes="1" speed="2.78" allow="pedestrian" oneway="1" width="2.00"/>
    <type id="highway.primary" priority="9" numLanes="2" speed="27.78" disallow="tram rail_urban rail rail_electric ship" oneway="0"/>
    <type id="highway.primary_link" priority="8" numLanes="1" speed="22.22" disallow="tram rail_urban rail rail_electric ship" oneway="0"/>
    <type id="highway.raceway" priority="14" numLanes="2" speed="83.33" allow="vip" oneway="0"/>
    <type id="highway.residential" priority="4" numLanes="1" speed="13.89" disallow="tram rail_urban rail rail_electric ship" oneway="0"/>
    <type id="highway.secondary" priority="7" numLanes="2" speed="27.78" disallow="tram rail_urban rail rail_electric ship" oneway="0"/>
    <type id="highway.secondary_link" priority="6" numLanes="1" speed="22.22" disallow="tram rail_urban rail rail_electric ship" oneway="0"/>
    <type id="highway.service" priority="2" numLanes="1" speed="5.56" allow="delivery bicycle pedestrian" oneway="0"/>
    <type id="highway.stairs" priority="1" numLanes="1" speed="1.39" allow="pedestrian" oneway="1" width="2.00"/>
    <type id="highway.step" priority="1" numLanes="1" speed="1.39" allow="pedestrian" oneway="1" width="2.00"/>
    <type id="highway.steps" priority="1" numLanes="1" speed="1.39" allow="pedestrian" oneway="1" width="2.00"/>
    <type id="highway.tertiary" priority="6" numLanes="1" speed="22.22" disallow="tram rail_urban rail rail_electric ship" oneway="0"/>
    <type id="highway.tertiary_link" priority="5" numLanes="1" speed="22.22" disallow="tram rail_urban rail rail_electric ship" oneway="0"/>
    <type id="highway.track" priority="1" numLanes="1" speed="5.56" disallow="tram rail_urban rail rail_electric ship" oneway="0"/>
    <type id="highway.trunk" priority="11" numLanes="2" speed="27.78" disallow="tram rail_urban rail rail_electric bicycle pedestrian ship" oneway="0"/>
    <type id="highway.trunk_link" priority="10" numLanes="1" speed="22.22" disallow="tram rail_urban rail rail_electric bicycle pedestrian ship" oneway="0"/>
    <type id="highway.unclassified" priority="5" numLanes="1" speed="13.89" disallow="tram rail_urban rail rail_electric ship" oneway="0"/>
    <type id="highway.unsurfaced" priority="1" numLanes="1" speed="8.33" disallow="tram rail_urban rail rail_electric ship" oneway="0"/>
    <type id="railway.light_rail" priority="15" numLanes="1" speed="27.78" allow="rail_urban" oneway="1"/>
    <type id="railway.preserved" priority="15" numLanes="1" speed="27.78" allow="rail" oneway="1"/>
    <type id="railway.rail" priority="15" numLanes="1" speed="83.33" allow="rail rail_electric" oneway="1"/>
    <type id="railway.subway" priority="15" numLanes="1" speed="27.78" allow="rail_urban" oneway="1"/>
    <type id="railway.tram" priority="15" numLanes="1" speed="13.89" allow="tram" oneway="1"/>

    <edge id=":1284416111_0" function="internal">
        <lane id=":1284416111_0_0" index="0" disallow="tram rail_urban rail rail_electric ship" speed="13.89" length="4.35" shape="664.52,435.13 663.51,439.44"/>
        <lane id=":1284416111_0_1" index="1" disallow="tram rail_urban rail rail_electric ship" speed="13.89" length="4.35" shape="661.39,434.46 660.41,438.63"/>
    </edge>
    <edge id=":1284416115_0" function="internal">
        <lane id=":1284416115_0_0" index="0" disallow="tram rail_urban rail rail_electric ship" speed="13.89" length="4.23" shape="651.60,436.72 652.57,432.50"/>
        <lane id=":1284416115_0_1" index="1" disallow="tram rail_urban rail rail_electric ship" speed="13.89" length="4.23" shape="654.75,437.32 655.67,433.28"/>
    </edge>
    <edge id=":1284416155_0" function="internal">
        <lane id=":1284416155_0_0" index="0" disallow="tram rail_urban rail rail_electric ship" speed="11.11" length="6.21" shape="764.39,465.91 758.31,464.64"/>
    </edge>
    <edge id=":1284416155_1" function="internal">
        <lane id=":1284416155_1_0" index="0" disallow="tram rail_urban rail rail_electric ship" speed="4.03" length="4.22" shape="761.03,462.79 761.03,463.87 760.58,464.55 759.67,464.80 758.31,464.64"/>
    </edge>
    <edge id=":1478148660_0" function="internal">
        <lane id=":1478148660_0_0" index="0" disallow="tram rail_urban rail rail_electric ship" speed="11.11" length="9.09" shape="656.47,442.70 647.60,440.68"/>
    </edge>
    <edge id=":1478148660_1" function="internal">
        <lane id=":1478148660_1_0" index="0" disallow="tram rail_urban rail rail_electric ship" speed="5.82" length="7.18" shape="649.30,446.86 649.73,444.42 649.59,442.58 648.88,441.33 647.60,440.68"/>
    </edge>
    <edge id=":1478148660_2" function="internal">
        <lane id=":1478148660_2_0" index="0" disallow="tram rail_urban rail rail_electric ship" speed="13.89" length="10.30" shape="649.30,446.86 651.56,436.92"/>
        <lane id=":1478148660_2_1" index="1" disallow="tram rail_urban rail rail_electric ship" speed="13.89" length="10.30" shape="652.40,447.66 654.71,437.51"/>
    </edge>
    <edge id=":1478148665_0" function="internal">
        <lane id=":1478148665_0_0" index="0" disallow="tram rail_urban rail rail_electric ship" speed="8.33" length="13.05" shape="595.75,531.59 607.99,527.05"/>
    </edge>
    <edge id=":1478148665_1" function="internal">
        <lane id=":1478148665_1_0" index="0" disallow="tram rail_urban rail rail_electric ship" speed="11.11" length="13.06" shape="595.75,531.59 599.00,530.63 602.05,530.41 605.18,530.55 608.66,530.63"/>
    </edge>
    <edge id=":1506876418_0" function="internal">
        <lane id=":1506876418_0_0" index="0" disallow="tram rail_urban rail rail_electric ship" speed="13.89" length="5.63" shape="704.89,189.58 706.43,190.20 707.53,190.51 708.68,190.64 710.34,190.72"/>
    </edge>
    <edge id=":1506876421_0" function="internal">
        <lane id=":1506876421_0_0" index="0" allow="rail rail_electric" speed="83.33" length="0.10" shape="731.51,196.90 731.51,196.90"/>
    </edge>
    <edge id=":1550982852_0" function="internal">
        <lane id=":1550982852_0_0" index="0" disallow="tram rail_urban rail rail_electric ship" speed="8.33" length="4.13" shape="433.71,361.05 429.67,360.18"/>
    </edge>
    <edge id=":1550982852_1" function="internal">
        <lane id=":1550982852_1_0" index="0" disallow="tram rail_urban rail rail_electric ship" speed="3.65" length="2.34" shape="433.71,361.05 432.72,360.00 432.51,359.13"/>
    </edge>
    <edge id=":1550982852_4" function="internal">
        <lane id=":1550982852_4_0" index="0" disallow="tram rail_urban rail rail_electric ship" speed="3.65" length="2.34" shape="432.51,359.13 433.08,358.45 434.43,357.94"/>
    </edge>
    <edge id=":1550982852_2" function="internal">
        <lane id=":1550982852_2_0" index="0" disallow="tram rail_urban rail rail_electric ship" speed="8.33" length="4.21" shape="430.31,357.05 434.43,357.94"/>
    </edge>
    <edge id=":1550982852_3" function="internal">
        <lane id=":1550982852_3_0" index="0" disallow="tram rail_urban rail rail_electric ship" speed="3.65" length="2.34" shape="430.31,357.05 431.32,358.07 431.56,358.94"/>
    </edge>
    <edge id=":1550982852_5" function="internal">
        <lane id=":1550982852_5_0" index="0" disallow="tram rail_urban rail rail_electric ship" speed="3.65" length="2.34" shape="431.56,358.94 431.00,359.64 429.67,360.18"/>
    </edge>
    <edge id=":165169_0" function="internal">
        <lane id=":165169_0_0" index="0" disallow="tram rail_urban rail rail_electric ship" speed="4.65" length="4.13" shape="605.94,276.50 602.71,273.92"/>
    </edge>
    <edge id=":165169_1" function="internal">
        <lane id=":165169_1_0" index="0" disallow="tram rail_urban rail rail_electric ship" speed="13.89" length="8.02" shape="605.94,276.50 598.61,273.26"/>
    </edge>
    <edge id=":165169_2" function="internal">
        <lane id=":165169_2_0" index="0" disallow="tram rail_urban rail rail_electric ship" speed="5.14" length="4.47" shape="605.94,276.50 604.41,275.68 603.43,274.80 603.01,273.86 603.06,273.47"/>
    </edge>
    <edge id=":165169_3" function="internal">
        <lane id=":165169_3_0" index="0" disallow="tram rail_urban rail rail_electric ship" speed="3.65" length="2.34" shape="605.94,276.50 605.16,275.28 605.11,274.39"/>
    </edge>
    <edge id=":165169_8" function="internal">
        <lane id=":165169_8_0" index="0" disallow="tram rail_urban rail rail_electric ship" speed="5.14" length="0.62" shape="603.06,273.47 603.14,272.86"/>
    </edge>
    <edge id=":165169_9" function="internal">
        <lane id=":165169_9_0" index="0" disallow="tram rail_urban rail rail_electric ship" speed="3.65" length="2.34" shape="605.11,274.39 605.80,273.82 607.22,273.56"/>
    </edge>
    <edge id=":165169_4" function="internal">
        <lane id=":165169_4_0" index="0" disallow="tram rail_urban rail rail_electric ship" speed="4.58" length="4.09" shape="599.92,270.34 603.14,272.86"/>
    </edge>
    <edge id=":165169_5" function="internal">
        <lane id=":165169_5_0" index="0" disallow="tram rail_urban rail rail_electric ship" speed="13.89" length="7.98" shape="599.92,270.34 607.22,273.56"/>
    </edge>
    <edge id=":165169_6" function="internal">
        <lane id=":165169_6_0" index="0" disallow="tram rail_urban rail rail_electric ship" speed="5.09" length="4.46" shape="599.92,270.34 601.45,271.17 602.42,272.04 602.84,272.96 602.79,273.35"/>
    </edge>
    <edge id=":165169_7" function="internal">
        <lane id=":165169_7_0" index="0" disallow="tram rail_urban rail rail_electric ship" speed="3.65" length="2.34" shape="599.92,270.34 600.68,271.56 600.72,272.45"/>
    </edge>
    <edge id=":165169_10" function="internal">
        <lane id=":165169_10_0" index="0" disallow="tram rail_urban rail rail_electric ship" speed="5.09" length="0.57" shape="602.79,273.35 602.71,273.92"/>
    </edge>
    <edge id=":165169_11" function="internal">
        <lane id=":165169_11_0" index="0" disallow="tram rail_urban rail rail_electric ship" speed="3.65" length="2.34" shape="600.72,272.45 600.03,273.02 598.61,273.26"/>
    </edge>
    <edge id=":1678932151_0" function="internal">
        <lane id=":1678932151_0_0" index="0" disallow="tram rail_urban rail rail_electric ship" speed="13.89" length="4.76" shape="258.63,526.58 257.54,525.67 256.82,525.03 256.14,524.34 255.21,523.28"/>
    </edge>
    <edge id=":1678932155_0" function="internal">
        <lane id=":1678932155_0_0" index="0" disallow="tram rail_urban rail rail_electric ship" speed="13.89" length="6.98" shape="240.78,527.08 242.68,526.25 243.97,525.63 245.13,524.81 246.64,523.42"/>
    </edge>
    <edge id=":1681471628_0" function="internal">
        <lane id=":1681471628_0_0" index="0" disallow="tram rail_urban rail rail_electric ship" speed="13.89" length="7.79" shape="265.56,537.39 263.82,538.92 262.63,539.97 261.54,541.12 260.15,542.96"/>
    </edge>
    <edge id=":1681471631_0" function="internal">
        <lane id=":1681471631_0_0" index="0" disallow="tram rail_urban rail rail_electric ship" speed="13.89" length="0.36" shape="243.70,535.76 243.84,535.84 243.93,535.89 244.02,535.95 244.15,536.04"/>
        <lane id=":1681471631_0_1" index="1" disallow="tram rail_urban rail rail_electric ship" speed="13.89" length="0.36" shape="242.15,538.56 242.20,538.58 242.23,538.60 242.26,538.62 242.30,538.65"/>
    </edge>
    <edge id=":1681471635_0" function="internal">
        <lane id=":1681471635_0_0" index="0" disallow="tram rail_urban rail rail_electric ship" speed="13.89" length="4.98" shape="262.13,548.12 266.42,550.85"/>
        <lane id=":1681471635_0_1" index="1" disallow="tram rail_urban rail rail_electric ship" speed="13.89" length="4.98" shape="260.53,550.89 264.65,553.51"/>
    </edge>
    <edge id=":1681471638_0" function="internal">
        <lane id=":1681471638_0_0" index="0" disallow="tram rail_urban rail rail_electric ship" speed="13.89" length="4.21" shape="258.49,560.47 254.96,558.26"/>
        <lane id=":1681471638_0_1" index="1" disallow="tram rail_urban rail rail_electric ship" speed="13.89" length="4.21" shape="260.21,557.78 256.61,555.51"/>
    </edge>
    <edge id=":1685691382_0" function="internal">
        <lane id=":1685691382_0_0" index="0" disallow="tram rail_urban rail rail_electric ship" speed="8.33" length="10.62" shape="422.14,358.66 411.76,356.42"/>
    </edge>
    <edge id=":1685691382_1" function="internal">
        <lane id=":1685691382_1_0" index="0" disallow="tram rail_urban rail rail_electric ship" speed="8.33" length="11.60" shape="422.14,358.66 420.76,357.80 419.55,355.80 418.52,352.68 417.66,348.41"/>
    </edge>
    <edge id=":1685691382_2" function="internal">
        <lane id=":1685691382_2_0" index="0" disallow="tram rail_urban rail rail_electric ship" speed="3.65" length="4.67" shape="422.14,358.66 421.10,357.66 420.85,356.80 421.39,356.08 422.71,355.51"/>
    </edge>
    <edge id=":1685691382_3" function="internal">
        <lane id=":1685691382_3_0" index="0" disallow="tram rail_urban rail rail_electric ship" speed="5.84" length="9.13" shape="412.46,353.30 415.11,353.51 416.86,352.77 417.71,351.07 417.66,348.41"/>
    </edge>
    <edge id=":1685691382_4" function="internal">
        <lane id=":1685691382_4_0" index="0" disallow="tram rail_urban rail rail_electric ship" speed="8.33" length="10.49" shape="412.46,353.30 422.71,355.51"/>
    </edge>
    <edge id=":1685691382_5" function="internal">
        <lane id=":1685691382_5_0" index="0" disallow="tram rail_urban rail rail_electric ship" speed="3.65" length="4.67" shape="412.46,353.30 413.45,354.34 413.67,355.21 413.10,355.90 411.76,356.42"/>
    </edge>
    <edge id=":1685691392_0" function="internal">
        <lane id=":1685691392_0_0" index="0" disallow="tram rail_urban rail rail_electric ship" speed="8.33" length="7.24" shape="559.31,401.70 558.11,399.93 557.16,398.80 556.02,397.86 554.26,396.64"/>
    </edge>
    <edge id=":1685691392_1" function="internal">
        <lane id=":1685691392_1_0" index="0" disallow="tram rail_urban rail rail_electric ship" speed="3.65" length="4.67" shape="559.31,401.70 559.33,400.26 559.78,399.49 560.67,399.39 561.99,399.96"/>
    </edge>
    <edge id=":1685691392_2" function="internal">
        <lane id=":1685691392_2_0" index="0" disallow="tram rail_urban rail rail_electric ship" speed="8.07" length="7.26" shape="561.49,392.97 560.99,394.92 560.90,396.73 561.24,398.41 561.99,399.96"/>
    </edge>
    <edge id=":1685691392_3" function="internal">
        <lane id=":1685691392_3_0" index="0" disallow="tram rail_urban rail rail_electric ship" speed="6.24" length="9.84" shape="561.49,392.97 560.12,395.80 558.45,397.35 556.50,397.63 554.26,396.64"/>
    </edge>
    <edge id=":1685691392_4" function="internal">
        <lane id=":1685691392_4_0" index="0" disallow="tram rail_urban rail rail_electric ship" speed="8.33" length="7.92" shape="556.55,394.33 558.46,395.68 559.68,396.74 560.70,398.00 561.99,399.96"/>
    </edge>
    <edge id=":1685691392_5" function="internal">
        <lane id=":1685691392_5_0" index="0" disallow="tram rail_urban rail rail_electric ship" speed="3.67" length="4.75" shape="556.55,394.33 556.84,395.77 556.56,396.63 555.70,396.92 554.26,396.64"/>
    </edge>
    <edge id=":1685691412_0" function="internal">
        <lane id=":1685691412_0_0" index="0" disallow="tram rail_urban rail rail_electric ship" speed="8.33" length="8.40" shape="574.11,421.20 571.86,420.13 570.34,419.23 569.18,417.98 568.02,415.84"/>
    </edge>
    <edge id=":1685691418_0" function="internal">
        <lane id=":1685691418_0_0" index="0" disallow="tram rail_urban rail rail_electric ship" speed="13.89" length="0.29" shape="665.34,431.26 665.28,431.52"/>
        <lane id=":1685691418_0_1" index="1" disallow="tram rail_urban rail rail_electric ship" speed="13.89" length="0.29" shape="662.22,430.55 662.15,430.85"/>
    </edge>
    <edge id=":1685691420_0" function="internal">
        <lane id=":1685691420_0_0" index="0" disallow="tram rail_urban rail rail_electric ship" speed="13.89" length="4.68" shape="671.92,446.12 667.33,445.19"/>
    </edge>
    <edge id=":1685691421_0" function="internal">
        <lane id=":1685691421_0_0" index="0" disallow="tram rail_urban rail rail_electric ship" speed="13.89" length="5.04" shape="647.32,454.50 648.59,449.62"/>
        <lane id=":1685691421_0_1" index="1" disallow="tram rail_urban rail rail_electric ship" speed="13.89" length="5.04" shape="650.42,455.30 651.69,450.42"/>
    </edge>
    <edge id=":1685691439_0" function="internal">
        <lane id=":1685691439_0_0" index="0" disallow="tram rail_urban rail rail_electric ship" speed="13.89" length="0.29" shape="348.62,609.84 348.86,610.04"/>
        <lane id=":1685691439_0_1" index="1" disallow="tram rail_urban rail rail_electric ship" speed="13.89" length="0.29" shape="346.64,612.36 346.85,612.52"/>
    </edge>
    <edge id=":1842614199_0" function="internal">
        <lane id=":1842614199_0_0" index="0" disallow="tram rail_urban rail rail_electric ship" speed="8.33" length="5.15" shape="481.79,372.31 476.79,371.05"/>
    </edge>
    <edge id=":1842614199_1" function="internal">
        <lane id=":1842614199_1_0" index="0" disallow="tram rail_urban rail rail_electric ship" speed="3.65" length="2.34" shape="481.79,372.31 480.86,371.21 480.69,370.33"/>
    </edge>
    <edge id=":1842614199_6" function="internal">
        <lane id=":1842614199_6_0" index="0" disallow="tram rail_urban rail rail_electric ship" speed="3.65" length="2.34" shape="480.69,370.33 481.30,369.67 482.68,369.23"/>
    </edge>
    <edge id=":1842614199_2" function="internal">
        <lane id=":1842614199_2_0" index="0" disallow="tram rail_urban rail rail_electric ship" speed="8.33" length="5.32" shape="477.51,367.93 482.68,369.23"/>
    </edge>
    <edge id=":1842614199_3" function="internal">
        <lane id=":1842614199_3_0" index="0" disallow="tram rail_urban rail rail_electric ship" speed="3.65" length="2.34" shape="477.51,367.93 478.50,368.98 478.71,369.85"/>
    </edge>
    <edge id=":1842614199_7" function="internal">
        <lane id=":1842614199_7_0" index="0" disallow="tram rail_urban rail rail_electric ship" speed="3.65" length="2.34" shape="478.71,369.85 478.14,370.54 476.79,371.05"/>
    </edge>
    <edge id=":1842614199_4" function="internal">
        <lane id=":1842614199_4_0" index="0" disallow="tram rail_urban rail rail_electric ship" speed="4.41" length="4.77" shape="478.07,374.74 478.59,373.38 478.55,372.31 477.95,371.53 476.79,371.05"/>
    </edge>
    <edge id=":1842614199_5" function="internal">
        <lane id=":1842614199_5_0" index="0" disallow="tram rail_urban rail rail_electric ship" speed="5.56" length="7.42" shape="478.07,374.74 479.54,372.17 480.79,370.40 481.84,369.42 482.68,369.23"/>
    </edge>
    <edge id=":1842650099_0" function="internal">
        <lane id=":1842650099_0_0" index="0" disallow="tram rail_urban rail rail_electric ship" speed="13.89" length="5.50" shape="649.40,503.30 650.37,504.61 651.10,505.46 651.95,506.20 653.25,507.17"/>
    </edge>
    <edge id=":1842988563_0" function="internal">
        <lane id=":1842988563_0_0" index="0" disallow="tram rail_urban rail rail_electric ship" speed="13.89" length="7.10" shape="777.53,487.33 775.69,480.40"/>
        <lane id=":1842988563_0_1" index="1" disallow="tram rail_urban rail rail_electric ship" speed="13.89" length="7.10" shape="780.61,486.48 778.80,479.62"/>
        <lane id=":1842988563_0_2" index="2" disallow="tram rail_urban rail rail_electric ship" speed="13.89" length="7.10" shape="783.70,485.63 781.90,478.84"/>
    </edge>
    <edge id=":1843025084_0" function="internal">
        <lane id=":1843025084_0_0" index="0" allow="tram" speed="13.89" length="5.09" shape="682.26,299.22 680.77,299.48 679.75,299.60 678.71,299.64 677.20,299.66"/>
    </edge>
    <edge id=":1843025089_0" function="internal">
        <lane id=":1843025089_0_0" index="0" disallow="tram rail_urban rail rail_electric ship" speed="13.89" length="10.03" shape="685.92,318.00 684.13,315.62 682.88,314.01 681.52,312.50 679.42,310.39"/>
    </edge>
    <edge id=":1843025089_1" function="internal">
        <lane id=":1843025089_1_0" index="0" disallow="tram rail_urban rail rail_electric ship" speed="9.15" length="10.92" shape="680.71,320.82 681.27,317.35 681.24,314.46 680.62,312.14 679.42,310.39"/>
    </edge>
    <edge id=":1843025089_2" function="internal">
        <lane id=":1843025089_2_0" index="0" disallow="tram rail_urban rail rail_electric ship" speed="13.89" length="12.62" shape="680.71,320.82 683.47,308.51"/>
        <lane id=":1843025089_2_1" index="1" disallow="tram rail_urban rail rail_electric ship" speed="13.89" length="12.62" shape="683.84,321.52 686.60,309.20"/>
    </edge>
    <edge id=":1843025091_0" function="internal">
        <lane id=":1843025091_0_0" index="0" disallow="tram rail_urban rail rail_electric ship" speed="13.89" length="12.44" shape="693.42,328.18 686.04,318.16"/>
    </edge>
    <edge id=":1843025091_1" function="internal">
        <lane id=":1843025091_1_0" index="0" disallow="tram rail_urban rail rail_electric ship" speed="13.89" length="11.22" shape="691.63,318.23 689.06,329.20"/>
        <lane id=":1843025091_1_1" index="1" disallow="tram rail_urban rail rail_electric ship" speed="13.89" length="11.22" shape="688.50,317.56 685.96,328.43"/>
    </edge>
    <edge id=":1843025098_0" function="internal">
        <lane id=":1843025098_0_0" index="0" disallow="tram rail_urban rail rail_electric ship" speed="13.89" length="6.39" shape="697.13,333.63 693.54,328.34"/>
    </edge>
    <edge id=":1845614387_0" function="internal">
        <lane id=":1845614387_0_0" index="0" disallow="tram rail_urban rail rail_electric ship" speed="8.33" length="5.13" shape="417.61,348.08 416.83,343.00"/>
    </edge>
    <edge id=":1845614391_0" function="internal">
        <lane id=":1845614391_0_0" index="0" disallow="tram rail_urban rail rail_electric ship" speed="8.33" length="5.04" shape="428.10,344.47 427.08,349.40"/>
    </edge>
    <edge id=":1845614619_0" function="internal">
        <lane id=":1845614619_0_0" index="0" disallow="tram rail_urban rail rail_electric ship" speed="8.33" length="4.99" shape="492.96,448.47 488.43,450.55"/>
    </edge>
    <edge id=":1845614619_1" function="internal">
        <lane id=":1845614619_1_0" index="0" disallow="tram rail_urban rail rail_electric ship" speed="3.65" length="2.34" shape="492.96,448.47 491.54,448.24 490.84,447.68"/>
    </edge>
    <edge id=":1845614619_6" function="internal">
        <lane id=":1845614619_6_0" index="0" disallow="tram rail_urban rail rail_electric ship" speed="3.65" length="2.34" shape="490.84,447.68 490.87,446.78 491.64,445.56"/>
    </edge>
    <edge id=":1845614619_2" function="internal">
        <lane id=":1845614619_2_0" index="0" disallow="tram rail_urban rail rail_electric ship" speed="4.98" length="4.66" shape="487.80,443.76 488.70,444.90 489.64,445.58 490.62,445.80 491.64,445.56"/>
    </edge>
    <edge id=":1845614619_3" function="internal">
        <lane id=":1845614619_3_0" index="0" disallow="tram rail_urban rail rail_electric ship" speed="5.56" length="7.71" shape="487.80,443.76 489.16,446.23 489.72,448.18 489.47,449.63 488.43,450.55"/>
    </edge>
    <edge id=":1845614619_4" function="internal">
        <lane id=":1845614619_4_0" index="0" disallow="tram rail_urban rail rail_electric ship" speed="8.33" length="5.01" shape="487.08,447.65 491.64,445.56"/>
    </edge>
    <edge id=":1845614619_5" function="internal">
        <lane id=":1845614619_5_0" index="0" disallow="tram rail_urban rail rail_electric ship" speed="3.65" length="2.34" shape="487.08,447.65 488.51,447.87 489.21,448.43"/>
    </edge>
    <edge id=":1845614619_7" function="internal">
        <lane id=":1845614619_7_0" index="0" disallow="tram rail_urban rail rail_electric ship" speed="3.65" length="2.34" shape="489.21,448.43 489.18,449.32 488.43,450.55"/>
    </edge>
    <edge id=":2409243918_0" function="internal">
        <lane id=":2409243918_0_0" index="0" disallow="tram rail_urban rail rail_electric ship" speed="8.33" length="4.71" shape="707.08,278.64 708.47,278.45 709.43,278.37 710.38,278.40 711.78,278.52"/>
    </edge>
    <edge id=":2676885607_0" function="internal">
        <lane id=":2676885607_0_0" index="0" disallow="tram rail_urban rail rail_electric ship" speed="5.00" length="5.04" shape="597.65,300.60 596.30,300.28 595.18,300.47 594.30,301.18 593.65,302.41"/>
    </edge>
    <edge id=":2676885607_1" function="internal">
        <lane id=":2676885607_1_0" index="0" allow="delivery bicycle pedestrian" speed="3.65" length="4.67" shape="597.65,300.60 596.83,299.41 596.75,298.52 597.42,297.93 598.83,297.62"/>
    </edge>
    <edge id=":2676885607_2" function="internal">
        <lane id=":2676885607_2_0" index="0" allow="delivery bicycle pedestrian" speed="5.27" length="5.21" shape="596.59,293.55 596.40,294.87 596.71,295.99 597.52,296.91 598.83,297.62"/>
    </edge>
    <edge id=":2676885607_3" function="internal">
        <lane id=":2676885607_3_0" index="0" disallow="tram rail_urban rail rail_electric ship" speed="8.33" length="9.34" shape="596.59,293.55 593.65,302.41"/>
    </edge>
    <edge id=":2676885608_0" function="internal">
        <lane id=":2676885608_0_0" index="0" disallow="tram rail_urban rail rail_electric ship" speed="4.34" length="3.72" shape="675.55,328.05 676.90,328.51 677.92,328.66 678.60,328.50 678.94,328.05"/>
    </edge>
    <edge id=":2676885608_1" function="internal">
        <lane id=":2676885608_1_0" index="0" allow="delivery bicycle pedestrian" speed="3.65" length="4.67" shape="675.55,328.05 676.37,329.24 676.44,330.13 675.78,330.73 674.37,331.03"/>
    </edge>
    <edge id=":2676885608_2" function="internal">
        <lane id=":2676885608_2_0" index="0" allow="delivery bicycle pedestrian" speed="4.79" length="3.91" shape="677.75,332.57 677.45,331.97 676.49,331.57 675.32,331.29 674.37,331.03"/>
    </edge>
    <edge id=":2676885608_3" function="internal">
        <lane id=":2676885608_3_0" index="0" disallow="tram rail_urban rail rail_electric ship" speed="13.89" length="4.61" shape="677.75,332.57 678.94,328.05"/>
        <lane id=":2676885608_3_1" index="1" disallow="tram rail_urban rail rail_electric ship" speed="13.89" length="4.61" shape="680.87,333.30 682.02,328.90"/>
    </edge>
    <edge id=":2678904985_0" function="internal">
        <lane id=":2678904985_0_0" index="0" allow="delivery bicycle pedestrian" speed="5.56" length="7.20" shape="688.63,270.51 688.21,268.42 688.03,266.94 688.17,265.48 688.69,263.43"/>
    </edge>
    <edge id=":2678904985_1" function="internal">
        <lane id=":2678904985_1_0" index="0" allow="delivery bicycle pedestrian" speed="3.65" length="2.23" shape="688.63,270.51 689.25,269.20 689.90,268.75"/>
    </edge>
    <edge id=":2678904985_4" function="internal">
        <lane id=":2678904985_4_0" index="0" allow="delivery bicycle pedestrian" speed="3.65" length="2.45" shape="689.90,268.75 689.99,268.69 690.84,268.97 691.81,270.04"/>
    </edge>
    <edge id=":2678904985_2" function="internal">
        <lane id=":2678904985_2_0" index="0" allow="delivery bicycle pedestrian" speed="5.56" length="5.84" shape="691.77,264.31 691.36,265.97 691.28,267.16 691.45,268.35 691.81,270.04"/>
    </edge>
    <edge id=":2678904985_3" function="internal">