 <additiona>
        <vType id="type1" accel="0.8" length="5" maxSpeed="70" vClass="bus"/>
        <vType id="type2" accel="1.8" length="15" maxSpeed="50"  vClass="bus"/>
 </additiona>