<?xml version="1.0" encoding="UTF-8"?>

<!-- generated on 07/19/20 22:53:33 by Eclipse SUMO netconvert Version 1.2.0
<configuration xmlns:xsi="http://www.w3.org/2001/XMLSchema-instance" xsi:noNamespaceSchemaLocation="http://sumo.dlr.de/xsd/netconvertConfiguration.xsd">

    <input>
        <osm-files value="C:\Users\darkm\Documents\yy.osm"/>
    </input>

    <output>
        <output-file value="mapNetconvert.net.xml"/>
    </output>

    <projection>
        <proj.utm value="true"/>
    </projection>

    <processing>
        <geometry.remove value="true"/>
        <roundabouts.guess value="true"/>
    </processing>

    <junctions>
        <junctions.join value="true"/>
    </junctions>

</configuration>
-->

<net version="1.1" junctionCornerDetail="5" limitTurnSpeed="5.50" xmlns:xsi="http://www.w3.org/2001/XMLSchema-instance" xsi:noNamespaceSchemaLocation="http://sumo.dlr.de/xsd/net_file.xsd">

    <location netOffset="-475284.13,-5549807.93" convBoundary="0.00,0.00,5494.53,3666.69" origBoundary="8.611691,50.088670,8.731139,50.133042" projParameter="+proj=utm +zone=32 +ellps=WGS84 +datum=WGS84 +units=m +no_defs"/>

    <type id="highway.bridleway" priority="1" numLanes="1" speed="2.78" allow="pedestrian" oneway="1" width="2.00"/>
    <type id="highway.bus_guideway" priority="1" numLanes="1" speed="27.78" allow="bus" oneway="1"/>
    <type id="highway.cycleway" priority="1" numLanes="1" speed="8.33" allow="bicycle" oneway="0" width="1.00"/>
    <type id="highway.footway" priority="1" numLanes="1" speed="2.78" allow="pedestrian" oneway="1" width="2.00"/>
    <type id="highway.ford" priority="1" numLanes="1" speed="2.78" allow="army" oneway="0"/>
    <type id="highway.living_street" priority="2" numLanes="1" speed="2.78" disallow="tram rail_urban rail rail_electric ship" oneway="0"/>
    <type id="highway.motorway" priority="14" numLanes="2" speed="39.44" allow="private emergency authority army vip passenger hov taxi bus coach delivery truck trailer motorcycle evehicle custom1 custom2" oneway="1"/>
    <type id="highway.motorway_link" priority="9" numLanes="1" speed="22.22" allow="private emergency authority army vip passenger hov taxi bus coach delivery truck trailer motorcycle evehicle custom1 custom2" oneway="1"/>
    <type id="highway.path" priority="1" numLanes="1" speed="2.78" allow="bicycle pedestrian" oneway="1" width="2.00"/>
    <type id="highway.pedestrian" priority="1" numLanes="1" speed="2.78" allow="pedestrian" oneway="1" width="2.00"/>
    <type id="highway.primary" priority="12" numLanes="2" speed="27.78" disallow="tram rail_urban rail rail_electric ship" oneway="0"/>
    <type id="highway.primary_link" priority="7" numLanes="1" speed="22.22" disallow="tram rail_urban rail rail_electric ship" oneway="0"/>
    <type id="highway.raceway" priority="15" numLanes="2" speed="83.33" allow="vip" oneway="0"/>
    <type id="highway.residential" priority="3" numLanes="1" speed="13.89" disallow="tram rail_urban rail rail_electric ship" oneway="0"/>
    <type id="highway.secondary" priority="11" numLanes="2" speed="27.78" disallow="tram rail_urban rail rail_electric ship" oneway="0"/>
    <type id="highway.secondary_link" priority="6" numLanes="1" speed="22.22" disallow="tram rail_urban rail rail_electric ship" oneway="0"/>
    <type id="highway.service" priority="1" numLanes="1" speed="5.56" allow="delivery bicycle pedestrian" oneway="0"/>
    <type id="highway.stairs" priority="1" numLanes="1" speed="1.39" allow="pedestrian" oneway="1" width="2.00"/>
    <type id="highway.step" priority="1" numLanes="1" speed="1.39" allow="pedestrian" oneway="1" width="2.00"/>
    <type id="highway.steps" priority="1" numLanes="1" speed="1.39" allow="pedestrian" oneway="1" width="2.00"/>
    <type id="highway.tertiary" priority="10" numLanes="1" speed="22.22" disallow="tram rail_urban rail rail_electric ship" oneway="0"/>
    <type id="highway.tertiary_link" priority="5" numLanes="1" speed="22.22" disallow="tram rail_urban rail rail_electric ship" oneway="0"/>
    <type id="highway.track" priority="1" numLanes="1" speed="5.56" disallow="tram rail_urban rail rail_electric ship" oneway="0"/>
    <type id="highway.trunk" priority="13" numLanes="2" speed="27.78" disallow="tram rail_urban rail rail_electric bicycle pedestrian ship" oneway="0"/>
    <type id="highway.trunk_link" priority="8" numLanes="1" speed="22.22" disallow="tram rail_urban rail rail_electric bicycle pedestrian ship" oneway="0"/>
    <type id="highway.unclassified" priority="4" numLanes="1" speed="13.89" disallow="tram rail_urban rail rail_electric ship" oneway="0"/>
    <type id="highway.unsurfaced" priority="1" numLanes="1" speed="8.33" disallow="tram rail_urban rail rail_electric ship" oneway="0"/>
    <type id="railway.light_rail" priority="19" numLanes="1" speed="27.78" allow="rail_urban" oneway="1"/>
    <type id="railway.preserved" priority="16" numLanes="1" speed="27.78" allow="rail" oneway="1"/>
    <type id="railway.rail" priority="20" numLanes="1" speed="83.33" allow="rail rail_electric" oneway="1"/>
    <type id="railway.subway" priority="18" numLanes="1" speed="27.78" allow="rail_urban" oneway="1"/>
    <type id="railway.tram" priority="17" numLanes="1" speed="13.89" allow="tram" oneway="1"/>

    <edge id=":1033446677_0" function="internal">
        <lane id=":1033446677_0_0" index="0" disallow="tram rail_urban rail rail_electric ship" speed="13.89" length="16.80" shape="1195.50,1683.82 1196.55,1688.75 1196.89,1692.19 1196.78,1695.68 1196.47,1700.73"/>
        <lane id=":1033446677_0_1" index="1" disallow="tram rail_urban rail rail_electric ship" speed="13.89" length="16.80" shape="1192.39,1684.56 1193.39,1689.35 1193.70,1692.69 1193.57,1696.08 1193.25,1700.98"/>
    </edge>
    <edge id=":1033446677_2" function="internal">
        <lane id=":1033446677_2_0" index="0" disallow="tram rail_urban rail rail_electric ship" speed="12.79" length="15.12" shape="1192.39,1684.56 1193.13,1689.22 1192.91,1692.86 1191.89,1695.96 1190.21,1699.02"/>
    </edge>
    <edge id=":1033447238_0" function="internal">
        <lane id=":1033447238_0_0" index="0" disallow="tram rail_urban rail rail_electric ship" speed="8.33" length="4.97" shape="1062.86,1698.56 1057.93,1697.97"/>
    </edge>
    <edge id=":1046609056_0" function="internal">
        <lane id=":1046609056_0_0" index="0" disallow="tram rail_urban rail rail_electric ship" speed="3.65" length="4.67" shape="2215.53,1559.72 2214.42,1558.80 2214.11,1557.97 2214.59,1557.21 2215.86,1556.54"/>
    </edge>
    <edge id=":1116037887_0" function="internal">
        <lane id=":1116037887_0_0" index="0" allow="bicycle pedestrian" speed="2.78" length="4.77" width="2.00" shape="1266.67,1040.90 1265.60,1040.57 1264.62,1040.77 1263.73,1041.50 1262.94,1042.77"/>
    </edge>
    <edge id=":1116037887_1" function="internal">
        <lane id=":1116037887_1_0" index="0" allow="bicycle pedestrian" speed="2.78" length="5.82" width="2.00" shape="1266.67,1040.90 1265.14,1040.17 1263.98,1039.90 1262.77,1039.96 1261.07,1040.22"/>
    </edge>
    <edge id=":1116037890_0" function="internal">
        <lane id=":1116037890_0_0" index="0" allow="bicycle pedestrian" speed="2.78" length="5.13" width="2.00" shape="1307.21,1062.58 1302.74,1060.08"/>
    </edge>
    <edge id=":1137603663_0" function="internal">
        <lane id=":1137603663_0_0" index="0" disallow="tram rail_urban rail rail_electric ship" speed="6.61" length="8.52" shape="2299.47,1720.86 2297.11,1720.92 2295.27,1721.65 2293.94,1723.07 2293.13,1725.16"/>
    </edge>
    <edge id=":1137603663_1" function="internal">
        <lane id=":1137603663_1_0" index="0" disallow="tram rail_urban rail rail_electric ship" speed="6.99" length="11.16" shape="2299.47,1720.86 2295.84,1720.13 2293.39,1718.83 2292.11,1716.97 2292.01,1714.54"/>
    </edge>
    <edge id=":1137603663_2" function="internal">
        <lane id=":1137603663_2_0" index="0" disallow="tram rail_urban rail rail_electric ship" speed="8.33" length="10.25" shape="2295.16,1715.11 2293.13,1725.16"/>
    </edge>
    <edge id=":1137603663_3" function="internal">
        <lane id=":1137603663_3_0" index="0" disallow="tram rail_urban rail rail_electric ship" speed="3.65" length="4.67" shape="2295.16,1715.11 2294.16,1716.15 2293.30,1716.40 2292.58,1715.87 2292.01,1714.54"/>
    </edge>
    <edge id=":1137603663_4" function="internal">
        <lane id=":1137603663_4_0" index="0" disallow="tram rail_urban rail rail_electric ship" speed="8.33" length="10.10" shape="2290.01,1724.45 2292.01,1714.54"/>
    </edge>
    <edge id=":1137603663_5" function="internal">
        <lane id=":1137603663_5_0" index="0" disallow="tram rail_urban rail rail_electric ship" speed="3.65" length="4.67" shape="2290.01,1724.45 2291.06,1723.45 2291.92,1723.24 2292.62,1723.81 2293.13,1725.16"/>
    </edge>
    <edge id=":1144707956_0" function="internal">
        <lane id=":1144707956_0_0" index="0" disallow="tram rail_urban rail rail_electric ship" speed="16.67" length="12.01" shape="1484.94,1318.69 1482.64,1316.59 1480.85,1315.03 1478.78,1313.66 1475.68,1312.11"/>
        <lane id=":1144707956_0_1" index="1" disallow="tram rail_urban rail rail_electric ship" speed="16.67" length="12.01" shape="1484.94,1318.69 1482.91,1316.16 1481.68,1313.66 1480.10,1311.30 1477.02,1309.20"/>
    </edge>
    <edge id=":1144707956_2" function="internal">
        <lane id=":1144707956_2_0" index="0" disallow="tram rail_urban rail rail_electric ship" speed="27.78" length="11.82" shape="1487.43,1314.98 1484.25,1313.46 1482.19,1312.16 1480.16,1310.83 1477.02,1309.20"/>
        <lane id=":1144707956_2_1" index="1" disallow="tram rail_urban rail rail_electric ship" speed="27.78" length="11.82" shape="1488.66,1312.03 1485.51,1310.52 1483.47,1309.23 1481.46,1307.90 1478.35,1306.29"/>
        <lane id=":1144707956_2_2" index="2" disallow="tram rail_urban rail rail_electric ship" speed="27.78" length="11.82" shape="1489.89,1309.07 1486.76,1307.58 1484.75,1306.30 1482.76,1304.98 1479.68,1303.38"/>
    </edge>
    <edge id=":1144707969_0" function="internal">
        <lane id=":1144707969_0_0" index="0" allow="delivery bicycle pedestrian" speed="5.56" length="6.76" shape="1564.71,1387.23 1563.59,1380.56"/>
    </edge>
    <edge id=":1144707969_1" function="internal">
        <lane id=":1144707969_1_0" index="0" allow="delivery bicycle pedestrian" speed="5.56" length="5.69" shape="1564.71,1387.23 1564.69,1385.68 1565.12,1384.42 1566.01,1383.47 1567.36,1382.81"/>
    </edge>
    <edge id=":1144707969_2" function="internal">
        <lane id=":1144707969_2_0" index="0" allow="delivery bicycle pedestrian" speed="5.56" length="5.68" shape="1560.96,1384.98 1562.34,1384.27 1563.24,1383.30 1563.66,1382.06 1563.59,1380.56"/>
    </edge>
    <edge id=":1144707969_3" function="internal">
        <lane id=":1144707969_3_0" index="0" allow="delivery bicycle pedestrian" speed="5.56" length="6.76" shape="1560.96,1384.98 1567.36,1382.81"/>
    </edge>
    <edge id=":1166321672_0" function="internal">
        <lane id=":1166321672_0_0" index="0" disallow="tram rail_urban rail rail_electric ship" speed="13.89" length="5.01" shape="1775.80,1432.18 1778.40,1427.90"/>
    </edge>
    <edge id=":1351487430_0" function="internal">
        <lane id=":1351487430_0_0" index="0" allow="delivery bicycle pedestrian" speed="5.56" length="5.29" shape="1395.77,1583.10 1394.25,1583.50 1393.20,1583.76 1392.14,1583.90 1390.57,1583.99"/>
    </edge>
    <edge id=":1351487430_1" function="internal">
        <lane id=":1351487430_1_0" index="0" allow="delivery bicycle pedestrian" speed="3.65" length="4.67" shape="1395.77,1583.10 1394.41,1582.62 1393.82,1581.95 1394.01,1581.07 1394.97,1580.00"/>
    </edge>
    <edge id=":1351487430_2" function="internal">
        <lane id=":1351487430_2_0" index="0" allow="delivery bicycle pedestrian" speed="5.56" length="4.60" shape="1390.46,1580.79 1391.82,1580.71 1392.74,1580.58 1393.65,1580.35 1394.97,1580.00"/>
    </edge>
    <edge id=":1351487430_3" function="internal">
        <lane id=":1351487430_3_0" index="0" allow="delivery bicycle pedestrian" speed="3.65" length="4.67" shape="1390.46,1580.79 1391.69,1581.55 1392.12,1582.33 1391.74,1583.15 1390.57,1583.99"/>
    </edge>
    <edge id=":1426837323_0" function="internal">
        <lane id=":1426837323_0_0" index="0" disallow="tram rail_urban rail rail_electric ship" speed="13.89" length="4.96" shape="2286.45,1049.68 2281.51,1049.17"/>
    </edge>
    <edge id=":1426837323_1" function="internal">
        <lane id=":1426837323_1_0" index="0" disallow="tram rail_urban rail rail_electric ship" speed="3.65" length="2.34" shape="2286.45,1049.68 2285.33,1048.77 2285.00,1047.94"/>
    </edge>
    <edge id=":1426837323_4" function="internal">
        <lane id=":1426837323_4_0" index="0" disallow="tram rail_urban rail rail_electric ship" speed="3.65" length="2.34" shape="2285.00,1047.94 2285.48,1047.18 2286.74,1046.50"/>
    </edge>
    <edge id=":1426837323_2" function="internal">
        <lane id=":1426837323_2_0" index="0" disallow="tram rail_urban rail rail_electric ship" speed="13.89" length="4.89" shape="2281.88,1045.99 2286.74,1046.50"/>
    </edge>
    <edge id=":1426837323_3" function="internal">
        <lane id=":1426837323_3_0" index="0" disallow="tram rail_urban rail rail_electric ship" speed="3.65" length="2.34" shape="2281.88,1045.99 2282.98,1046.92 2283.28,1047.76"/>
    </edge>
    <edge id=":1426837323_5" function="internal">
        <lane id=":1426837323_5_0" index="0" disallow="tram rail_urban rail rail_electric ship" speed="3.65" length="2.34" shape="2283.28,1047.76 2282.80,1048.51 2281.51,1049.17"/>
    </edge>
    <edge id=":1426837324_0" function="internal">
        <lane id=":1426837324_0_0" index="0" disallow="tram rail_urban rail rail_electric ship" speed="13.89" length="5.33" shape="2283.56,1075.79 2281.99,1075.93 2280.91,1075.97 2279.82,1075.93 2278.25,1075.80"/>
    </edge>
    <edge id=":1426837326_0" function="internal">
        <lane id=":1426837326_0_0" index="0" disallow="tram rail_urban rail rail_electric ship" speed="13.89" length="4.99" shape="2238.10,1073.48 2233.12,1073.24"/>
    </edge>
    <edge id=":1503785812_0" function="internal">
        <lane id=":1503785812_0_0" index="0" allow="rail rail_electric" speed="83.33" length="2.99" shape="1934.05,1556.44 1936.86,1557.45"/>
    </edge>
    <edge id=":1503785812_1" function="internal">
        <lane id=":1503785812_1_0" index="0" allow="rail rail_electric" speed="50.00" length="3.02" shape="1934.05,1556.44 1936.88,1557.47"/>
    </edge>
    <edge id=":1503785838_0" function="internal">
        <lane id=":1503785838_0_0" index="0" allow="rail rail_electric" speed="83.33" length="1.43" shape="1543.69,1580.34 1545.04,1579.88"/>
    </edge>
    <edge id=":1503785840_0" function="internal">
        <lane id=":1503785840_0_0" index="0" allow="rail rail_electric" speed="83.33" length="3.00" shape="1544.02,1591.66 1541.13,1592.46"/>
    </edge>
    <edge id=":1503785848_0" function="internal">
        <lane id=":1503785848_0_0" index="0" allow="rail rail_electric" speed="83.33" length="38.10" shape="1443.52,1614.05 1479.64,1601.92"/>
    </edge>
    <edge id=":1503785848_1" function="internal">
        <lane id=":1503785848_1_0" index="0" allow="rail rail_electric" speed="83.33" length="38.19" shape="1443.52,1614.05 1450.65,1612.17 1462.04,1609.40 1473.46,1606.74 1480.66,1605.20"/>
    </edge>
    <edge id=":1503785856_0" function="internal">
        <lane id=":1503785856_0_0" index="0" allow="rail rail_electric" speed="83.33" length="57.87" shape="1472.12,1612.64 1416.55,1628.80"/>
    </edge>
    <edge id=":1503785856_1" function="internal">
        <lane id=":1503785856_1_0" index="0" allow="rail rail_electric" speed="83.33" length="57.92" shape="1471.14,1609.43 1461.33,1613.05 1443.90,1619.28 1426.45,1625.43 1416.55,1628.80"/>
    </edge>
    <edge id=":1503785870_0" function="internal">
        <lane id=":1503785870_0_0" index="0" allow="rail_urban" speed="27.78" length="2.59" shape="1286.82,1659.63 1289.26,1658.77"/>
    </edge>
    <edge id=":1503785872_0" function="internal">
        <lane id=":1503785872_0_0" index="0" allow="rail_urban" speed="27.78" length="2.96" shape="1293.34,1671.52 1290.56,1672.54"/>
    </edge>
    <edge id=":1504013209_0" function="internal">
        <lane id=":1504013209_0_0" index="0" disallow="tram rail_urban rail rail_electric ship" speed="8.85" length="16.25" shape="1782.23,1986.21 1778.81,1985.88 1775.68,1987.21 1772.84,1990.19 1770.30,1994.83"/>
    </edge>
    <edge id=":1504013209_1" function="internal">
        <lane id=":1504013209_1_0" index="0" disallow="tram rail_urban rail rail_electric ship" speed="13.89" length="12.37" shape="1775.58,1983.77 1770.30,1994.83"/>
        <lane id=":1504013209_1_1" index="1" disallow="tram rail_urban rail rail_electric ship" speed="13.89" length="12.37" shape="1772.74,1982.30 1767.37,1993.55"/>
    </edge>
    <edge id=":1504013212_0" function="internal">
        <lane id=":1504013212_0_0" index="0" disallow="tram rail_urban rail rail_electric ship" speed="13.89" length="5.70" shape="1817.48,1998.25 1811.93,1996.43"/>
        <lane id=":1504013212_0_1" index="1" disallow="tram rail_urban rail rail_electric ship" speed="13.89" length="5.70" shape="1818.37,1995.18 1812.91,1993.38"/>
        <lane id=":1504013212_0_2" index="2" disallow="tram rail_urban rail rail_electric ship" speed="13.89" length="5.70" shape="1819.26,1992.11 1813.88,1990.34"/>
        <lane id=":1504013212_0_3" index="3" disallow="tram rail_urban rail rail_electric ship" speed="13.89" length="5.70" shape="1820.15,1989.03 1814.86,1987.29"/>
    </edge>
    <edge id=":1504013214_0" function="internal">
        <lane id=":1504013214_0_0" index="0" disallow="tram rail_urban rail rail_electric ship" speed="13.89" length="2.06" shape="1825.18,2000.57 1825.06,2000.49 1824.97,2000.44 1824.87,2000.40 1824.72,2000.35"/>
        <lane id=":1504013214_0_1" index="1" disallow="tram rail_urban rail rail_electric ship" speed="12.25" length="2.06" shape="1827.00,1997.94 1826.62,1997.68 1826.34,1997.53 1826.05,1997.41 1825.61,1997.28"/>
        <lane id=":1504013214_0_2" index="2" disallow="tram rail_urban rail rail_electric ship" speed="13.89" length="2.06" shape="1828.81,1995.30 1828.18,1994.87 1827.72,1994.62 1827.23,1994.43 1826.50,1994.21"/>
        <lane id=":1504013214_0_3" index="3" disallow="tram rail_urban rail rail_electric ship" speed="13.89" length="2.06" shape="1830.62,1992.66 1829.74,1992.07 1829.10,1991.70 1828.42,1991.44 1827.40,1991.13"/>
    </edge>
    <edge id=":1504013492_0" function="internal">
        <lane id=":1504013492_0_0" index="0" disallow="tram rail_urban rail rail_electric ship" speed="8.33" length="0.30" shape="1827.51,2230.32 1827.55,2230.62"/>
    </edge>
    <edge id=":1504013775_0" function="internal">
        <lane id=":1504013775_0_0" index="0" disallow="tram rail_urban rail rail_electric ship" speed="13.89" length="0.30" shape="1547.21,2313.16 1547.16,2313.24"/>
        <lane id=":1504013775_0_1" index="1" disallow="tram rail_urban rail rail_electric ship" speed="13.89" length="0.30" shape="1544.54,2311.40 1544.38,2311.66"/>
        <lane id=":1504013775_0_2" index="2" disallow="tram rail_urban rail rail_electric ship" speed="13.89" length="0.30" shape="1541.86,2309.64 1541.60,2310.07"/>
    </edge>
    <edge id=":1510110991_0" function="internal">
        <lane id=":1510110991_0_0" index="0" allow="delivery bicycle pedestrian" speed="3.65" length="4.67" shape="2146.68,2189.45 2145.24,2189.34 2144.50,2188.83 2144.46,2187.94 2145.12,2186.66"/>
    </edge>
    <edge id=":15514045_0" function="internal">
        <lane id=":15514045_0_0" index="0" disallow="tram rail_urban rail rail_electric ship" speed="8.26" length="6.63" shape="2076.63,2165.60 2076.17,2166.37 2075.83,2167.70 2075.64,2169.59 2075.57,2172.05"/>
    </edge>
    <edge id=":15514045_1" function="internal">
        <lane id=":15514045_1_0" index="0" disallow="tram rail_urban rail rail_electric ship" speed="5.56" length="6.92" shape="2076.63,2165.60 2071.58,2170.33"/>
    </edge>
    <edge id=":15514182_0" function="internal">
        <lane id=":15514182_0_0" index="0" disallow="tram rail_urban rail rail_electric ship" speed="6.96" length="9.20" shape="2076.00,2277.05 2075.49,2274.61 2074.36,2272.79 2072.60,2271.61 2070.22,2271.06"/>
    </edge>
    <edge id=":15514182_1" function="internal">
        <lane id=":15514182_1_0" index="0" disallow="tram rail_urban rail rail_electric ship" speed="6.02" length="8.52" shape="2076.00,2277.05 2076.17,2274.67 2077.08,2273.04 2078.73,2272.15 2081.12,2272.02"/>
    </edge>
    <edge id=":15514182_2" function="internal">
        <lane id=":15514182_2_0" index="0" disallow="tram rail_urban rail rail_electric ship" speed="6.72" length="9.04" shape="2075.60,2266.13 2075.95,2268.52 2076.98,2270.30 2078.71,2271.47 2081.12,2272.02"/>
    </edge>
    <edge id=":15514182_3" function="internal">
        <lane id=":15514182_3_0" index="0" disallow="tram rail_urban rail rail_electric ship" speed="6.15" length="8.50" shape="2075.60,2266.13 2075.27,2268.46 2074.26,2270.06 2072.58,2270.93 2070.22,2271.06"/>
    </edge>
    <edge id=":15514339_0" function="internal">
        <lane id=":15514339_0_0" index="0" disallow="tram rail_urban rail rail_electric ship" speed="3.65" length="4.67" shape="1865.90,2362.69 1865.60,2364.10 1865.00,2364.76 1864.11,2364.68 1862.92,2363.86"/>
    </edge>
    <edge id=":15514401_0" function="internal">
        <lane id=":15514401_0_0" index="0" disallow="tram rail_urban rail rail_electric ship" speed="6.82" length="8.30" shape="2138.05,2116.11 2136.24,2115.15 2134.38,2114.94 2132.45,2115.50 2130.47,2116.81"/>
    </edge>
    <edge id=":15514401_1" function="internal">
        <lane id=":15514401_1_0" index="0" disallow="tram rail_urban rail rail_electric ship" speed="13.89" length="9.76" shape="2138.05,2116.11 2130.24,2110.37"/>
        <lane id=":15514401_1_1" index="1" disallow="tram rail_urban rail rail_electric ship" speed="13.89" length="9.76" shape="2139.98,2113.56 2132.11,2107.78"/>
        <lane id=":15514401_1_2" index="2" disallow="tram rail_urban rail rail_electric ship" speed="13.89" length="9.76" shape="2141.90,2111.00 2133.99,2105.18"/>
    </edge>
    <edge id=":16084063_0" function="internal">
        <lane id=":16084063_0_0" index="0" disallow="tram rail_urban rail rail_electric ship" speed="6.73" length="9.58" shape="2038.48,2079.62 2036.03,2079.71 2034.16,2080.66 2032.85,2082.49 2032.11,2085.18"/>
    </edge>
    <edge id=":16084063_1" function="internal">
        <lane id=":16084063_1_0" index="0" disallow="tram rail_urban rail rail_electric ship" speed="13.89" length="12.59" shape="2038.48,2079.62 2035.06,2079.26 2032.70,2079.25 2030.34,2079.57 2026.95,2080.19"/>
        <lane id=":16084063_1_1" index="1" disallow="tram rail_urban rail rail_electric ship" speed="13.89" length="12.59" shape="2038.88,2076.44 2035.17,2076.05 2032.61,2076.03 2030.06,2076.37 2026.39,2077.04"/>
        <lane id=":16084063_1_2" index="2" disallow="tram rail_urban rail rail_electric ship" speed="13.89" length="12.59" shape="2039.28,2073.27 2035.29,2072.84 2032.53,2072.81 2029.78,2073.17 2025.82,2073.89"/>
    </edge>
    <edge id=":162636_0" function="internal">
        <lane id=":162636_0_0" index="0" disallow="tram rail_urban rail rail_electric ship" speed="13.89" length="5.46" shape="1915.29,1413.22 1920.57,1414.60"/>
    </edge>
    <edge id=":162639_0" function="internal">
        <lane id=":162639_0_0" index="0" disallow="tram rail_urban rail rail_electric ship" speed="8.99" length="11.90" shape="1799.28,1365.71 1799.97,1369.49 1801.10,1372.41 1802.66,1374.47 1804.65,1375.68"/>
    </edge>
    <edge id=":162639_1" function="internal">
        <lane id=":162639_1_0" index="0" disallow="tram rail_urban rail rail_electric ship" speed="6.27" length="4.27" shape="1799.28,1365.71 1799.18,1369.17 1798.74,1369.84"/>
    </edge>
    <edge id=":162639_2" function="internal">
        <lane id=":162639_2_0" index="0" disallow="tram rail_urban rail rail_electric ship" speed="3.68" length="2.55" shape="1799.28,1365.71 1798.90,1367.13 1798.25,1367.78 1798.10,1367.76"/>
    </edge>
    <edge id=":162639_6" function="internal">
        <lane id=":162639_6_0" index="0" disallow="tram rail_urban rail rail_electric ship" speed="6.27" length="7.68" shape="1798.74,1369.84 1797.93,1371.06 1795.51,1371.37 1791.94,1370.11"/>
    </edge>
    <edge id=":162639_7" function="internal">
        <lane id=":162639_7_0" index="0" disallow="tram rail_urban rail rail_electric ship" speed="3.68" length="2.24" shape="1798.10,1367.76 1797.35,1367.66 1796.18,1366.76"/>
    </edge>
    <edge id=":162639_3" function="internal">
        <lane id=":162639_3_0" index="0" disallow="tram rail_urban rail rail_electric ship" speed="8.41" length="12.12" shape="1799.51,1378.65 1799.30,1376.45 1797.97,1374.29 1795.51,1372.17 1791.94,1370.11"/>
    </edge>
    <edge id=":162639_4" function="internal">
        <lane id=":162639_4_0" index="0" disallow="tram rail_urban rail rail_electric ship" speed="13.89" length="12.50" shape="1799.51,1378.65 1799.39,1375.41 1798.35,1372.72 1797.04,1370.02 1796.18,1366.76"/>
    </edge>
    <edge id=":162639_5" function="internal">
        <lane id=":162639_5_0" index="0" disallow="tram rail_urban rail rail_electric ship" speed="5.53" length="3.85" shape="1799.51,1378.65 1800.10,1376.77 1801.15,1375.64 1801.48,1375.57"/>
    </edge>
    <edge id=":162639_8" function="internal">
        <lane id=":162639_8_0" index="0" disallow="tram rail_urban rail rail_electric ship" speed="5.53" length="3.25" shape="1801.48,1375.57 1802.67,1375.28 1804.65,1375.68"/>
    </edge>
    <edge id=":162640_0" function="internal">
        <lane id=":162640_0_0" index="0" disallow="tram rail_urban rail rail_electric ship" speed="3.65" length="4.67" shape="1929.78,1050.05 1930.64,1051.20 1930.75,1052.09 1930.10,1052.71 1928.70,1053.06"/>
    </edge>
    <edge id=":162641_0" function="internal">
        <lane id=":162641_0_0" index="0" disallow="tram rail_urban rail rail_electric ship" speed="6.51" length="8.74" shape="1837.80,1020.68 1835.46,1020.24 1833.52,1020.64 1831.96,1021.88 1830.79,1023.95"/>
    </edge>
    <edge id=":162641_1" function="internal">
        <lane id=":162641_1_0" index="0" disallow="tram rail_urban rail rail_electric ship" speed="8.33" length="14.00" shape="1837.80,1020.68 1834.65,1019.10 1832.13,1016.88 1829.97,1014.17 1827.92,1011.15"/>
    </edge>
    <edge id=":162641_2" function="internal">
        <lane id=":162641_2_0" index="0" disallow="tram rail_urban rail rail_electric ship" speed="3.65" length="4.67" shape="1837.80,1020.68 1836.92,1019.54 1836.80,1018.65 1837.43,1018.02 1838.83,1017.65"/>
    </edge>
    <edge id=":162641_3" function="internal">
        <lane id=":162641_3_0" index="0" disallow="tram rail_urban rail rail_electric ship" speed="8.33" length="12.08" shape="1827.81,1022.79 1828.91,1019.27 1829.29,1016.16 1828.96,1013.45 1827.92,1011.15"/>
    </edge>
    <edge id=":162641_4" function="internal">
        <lane id=":162641_4_0" index="0" disallow="tram rail_urban rail rail_electric ship" speed="8.01" length="13.73" shape="1827.81,1022.79 1829.64,1019.53 1832.09,1017.59 1835.15,1016.96 1838.83,1017.65"/>
    </edge>
    <edge id=":162641_5" function="internal">
        <lane id=":162641_5_0" index="0" disallow="tram rail_urban rail rail_electric ship" speed="3.65" length="4.67" shape="1827.81,1022.79 1828.99,1021.96 1829.88,1021.88 1830.48,1022.55 1830.79,1023.95"/>
    </edge>
    <edge id=":162642_0" function="internal">
        <lane id=":162642_0_0" index="0" disallow="tram rail_urban rail rail_electric ship" speed="6.59" length="2.40" shape="1657.03,961.48 1656.93,963.88"/>
    </edge>
    <edge id=":162642_1" function="internal">
        <lane id=":162642_1_0" index="0" disallow="tram rail_urban rail rail_electric ship" speed="3.65" length="4.67" shape="1654.23,962.17 1655.55,961.58 1656.44,961.67 1656.90,962.44 1656.93,963.88"/>
    </edge>
    <edge id=":162643_0" function="internal">
        <lane id=":162643_0_0" index="0" disallow="tram rail_urban rail rail_electric ship" speed="11.11" length="10.23" shape="1616.66,1054.96 1616.31,1051.96 1615.96,1049.86 1615.81,1047.77 1616.07,1044.79"/>
    </edge>
    <edge id=":162643_1" function="internal">
        <lane id=":162643_1_0" index="0" disallow="tram rail_urban rail rail_electric ship" speed="4.97" length="6.18" shape="1616.66,1054.96 1617.41,1054.74 1619.20,1055.24 1621.18,1055.99 1622.51,1056.49"/>
    </edge>
    <edge id=":162643_2" function="internal">
        <lane id=":162643_2_0" index="0" disallow="tram rail_urban rail rail_electric ship" speed="7.25" length="10.15" shape="1619.24,1045.24 1619.15,1048.24 1619.82,1050.60 1621.25,1052.33 1623.44,1053.43"/>
    </edge>
    <edge id=":162643_3" function="internal">
        <lane id=":162643_3_0" index="0" disallow="tram rail_urban rail rail_electric ship" speed="3.65" length="4.67" shape="1619.24,1045.24 1618.28,1046.32 1617.43,1046.60 1616.69,1046.09 1616.07,1044.79"/>
    </edge>
    <edge id=":162643_4" function="internal">
        <lane id=":162643_4_0" index="0" disallow="tram rail_urban rail rail_electric ship" speed="6.05" length="9.07" shape="1609.61,1048.53 1612.12,1049.13 1614.03,1048.71 1615.35,1047.26 1616.07,1044.79"/>
    </edge>
    <edge id=":162643_5" function="internal">
        <lane id=":162643_5_0" index="0" disallow="tram rail_urban rail rail_electric ship" speed="13.89" length="14.80" shape="1609.61,1048.53 1623.44,1053.43"/>
        <lane id=":162643_5_1" index="1" disallow="tram rail_urban rail rail_electric ship" speed="13.89" length="14.80" shape="1608.43,1051.50 1622.51,1056.49"/>
    </edge>
    <edge id=":162645_0" function="internal">