<?xml version="1.0" encoding="UTF-8"?>

<!-- generated on 06/28/19 10:01:35 by Eclipse SUMO duarouter Version 1.1.0
<configuration xmlns:xsi="http://www.w3.org/2001/XMLSchema-instance" xsi:noNamespaceSchemaLocation="http://sumo.dlr.de/xsd/duarouterConfiguration.xsd">

    <input>
        <net-file value="new.net.xml"/>
        <additional-files value="./models/random/vehicles.add.xml"/>
        <route-files value="./models/random/trips.trips.xml"/>
    </input>

    <output>
        <output-file value="./models/random/routes.rou.xml"/>
        <alternatives-output value="./models/random/routes.rou.alt.xml"/>
    </output>

    <time>
        <begin value="0"/>
        <end value="10.0"/>
    </time>

    <report>
        <no-warnings value="true"/>
        <ignore-errors value="true"/>
        <no-step-log value="true"/>
    </report>

</configuration>
-->

<routes xmlns:xsi="http://www.w3.org/2001/XMLSchema-instance" xsi:noNamespaceSchemaLocation="http://sumo.dlr.de/xsd/routes_file.xsd">
    <vehicle id="0" type="dist1" depart="0.00">
        <route edges="47457259#10 333598111#1 333598111#2 228371124#0 47457266#1 47457266#2 47751741#0 47751741#1"/>
    </vehicle>
    <vehicle id="1" type="dist1" depart="1.00">
        <route edges="447693571#2 47457259#4 47457259#5 47457259#6 47457259#7 47457259#8 47457259#9 47457259#10 333598111#1 333598111#2 228371124#0 228371124#1 228371124#2 228371124#3 228371125#0"/>
    </vehicle>
    <vehicle id="2" type="dist1" depart="2.00">
        <route edges="47457387#2 447469848#1 447469848#2 447469848#3 447469848#4 447469848#5 447469848#6"/>
    </vehicle>
    <vehicle id="3" type="dist1" depart="3.00">
        <route edges="228371106#1 228371106#2 228371106#3 228371106#4 47457262#0 47457262#1 -47457265#2 -454067558#1 -454067558#0"/>
    </vehicle>
    <vehicle id="6" type="dist1" depart="6.00">
        <route edges="-447693571#0 -447693539 -447693568 -230769158#2 -230769158#1 -230769158#0 -228371106#6 -228371106#5 47457262#0 47457262#1 -47457262#1"/>
    </vehicle>
    <vehicle id="7" type="dist1" depart="7.00">
        <route edges="47457281 47751765 47457278#1 47457278#2"/>
    </vehicle>
</routes>
