<?xml version="1.0" encoding="UTF-8"?>

<!-- generated on 07/26/19 12:08:37 by Eclipse SUMO duarouter Version 1.1.0
<configuration xmlns:xsi="http://www.w3.org/2001/XMLSchema-instance" xsi:noNamespaceSchemaLocation="http://sumo.dlr.de/xsd/duarouterConfiguration.xsd">

    <input>
        <net-file value="mapNetconvert.net.xml"/>
        <additional-files value="C:\Users\Neblis\Desktop\C4R\vehicles.add.xml"/>
        <route-files value="./models/random/trips.trips.xml"/>
    </input>

    <output>
        <output-file value="./models/random/routes.rou.xml"/>
        <alternatives-output value="./models/random/routes.rou.alt.xml"/>
    </output>

    <time>
        <begin value="0"/>
        <end value="300.0"/>
    </time>

    <report>
        <no-warnings value="true"/>
        <ignore-errors value="true"/>
        <no-step-log value="true"/>
    </report>

</configuration>
-->

<routes xmlns:xsi="http://www.w3.org/2001/XMLSchema-instance" xsi:noNamespaceSchemaLocation="http://sumo.dlr.de/xsd/routes_file.xsd">
    <vType id="Car" length="1.00" minGap="1.00" maxSpeed="50.00" probability="0.50" carFollowModel="Krauss" accel="3.00" decel="5.00" sigma="0.5" tau="7.0"/>
    <vehicle id="0" type="Car" depart="0.00">
        <route edges="228371106#2 228371106#3 47457387#1 47457387#2 -447469848#0 -38283578#2 -38283578#1 47457295#0 47457295#1 47457295#2 47457390"/>
    </vehicle>
    <vehicle id="1" type="Car" depart="1.00">
        <route edges="-38283578#2 -38283578#1 47457295#0 47457295#1 47457295#2"/>
    </vehicle>
    <vType id="Sport" length="1.00" minGap="1.00" maxSpeed="80.00" probability="0.50" carFollowModel="Krauss" accel="3.00" decel="5.00" sigma="0.5" tau="7.0"/>
    <vehicle id="2" type="Sport" depart="2.00">
        <route edges="-228371106#1 228371106#1 228371106#2 47457271#0 47457271#1 -47457278#4 -47457278#3 47751789#0 47457292"/>
    </vehicle>
    <vehicle id="3" type="Sport" depart="3.00">
        <route edges="-47457278#4 47457278#4 47457278#5 47457265#1 47457265#2 228371120#0 454067558#4"/>
    </vehicle>
    <vehicle id="4" type="Car" depart="4.00">
        <route edges="47457295#3 47457295#4 447469848#0 447469848#1 -228371106#5 47457262#0 47457262#1"/>
    </vehicle>
    <vehicle id="5" type="Sport" depart="5.00">
        <route edges="47457278#0 47457278#1 47457278#3 47457278#4 47457278#5 -47457265#0 454067557#1 454067557#2 447469848#7 228371124#0 47457266#1"/>
    </vehicle>
    <vehicle id="6" type="Car" depart="6.00">
        <route edges="-47457265#2 454067558#2 -47457262#0 228371106#5 -447469848#1 -447469848#0"/>
    </vehicle>
    <vehicle id="7" type="Sport" depart="7.00">
        <route edges="228371125#0 -228371125#0 228371123#0 228371123#1 228371124#2 228371124#3"/>
    </vehicle>
    <vehicle id="8" type="Car" depart="8.00">
        <route edges="454067557#0 -454067557#0 454067558#1 454067558#2 -47457262#0 228371106#5 230769158#0 230769158#1 47457259#0 47457259#2 47457259#4 47457259#5 47457259#6"/>
    </vehicle>
    <vehicle id="9" type="Car" depart="9.00">
        <route edges="-447469848#7 -447469848#5 -447469848#4 -447469848#3 -447469848#2 -447469848#1 -447469848#0 -38283578#2 -38283578#1 47457295#0 47457295#1"/>
    </vehicle>
    <vehicle id="11" type="Car" depart="11.00">
        <route edges="447469848#5 -447469848#5 -447469848#4 -447469848#3 -447469848#2 230769158#0 230769158#1 47457259#0 47457259#2 47457259#4"/>
    </vehicle>
    <vehicle id="14" type="Car" depart="14.00">
        <route edges="47457258#0 47457294#2 333598111#2 -447469848#7 -447469848#5 -447469848#4"/>
    </vehicle>
    <vehicle id="16" type="Sport" depart="16.00">
        <route edges="47457259#5 47457259#6 47457259#7 47457259#8 47457259#9 333598111#1 333598111#2 -447469848#7 -454067557#2 -454067557#1 47457265#0 47457265#1 454067558#2 -47457262#0"/>
    </vehicle>
    <vehicle id="17" type="Car" depart="17.00">
        <route edges="47457262#0 47457262#1 -47457265#2 -454067558#1 454067557#0 454067557#1 -47457267 47457266#2 -47751768#1"/>
    </vehicle>
    <vehicle id="19" type="Car" depart="19.00">
        <route edges="-230769158#3 -230769158#2 -230769158#1 -230769158#0 447469848#2 447469848#3 447469848#4 447469848#5 47457258#0"/>
    </vehicle>
    <vehicle id="20" type="Sport" depart="20.00">
        <route edges="47751741#2 47457266#1 47457266#2 -47751768#1 -47751768#0 47457277 -47457278#1 47457278#1"/>
    </vehicle>
    <vehicle id="21" type="Car" depart="21.00">
        <route edges="47457259#0 47457259#2 47457259#4 47457259#5 47457259#6 47457259#7 47457259#8 47457259#9 333598111#1 333598111#2 -447469848#7 -454067557#2 -454067557#1 47457265#0 47457265#1 454067558#2 -47457262#0 47457262#0"/>
    </vehicle>
    <vehicle id="22" type="Sport" depart="22.00">
        <route edges="447469848#5 47457258#0 47457294#2 -333598111#1 -333598111#0"/>
    </vehicle>
    <vehicle id="25" type="Car" depart="25.00">
        <route edges="-447469848#5 447469848#5 -454067557#2 -47457267 47457266#2 -47751768#1 47457275"/>
    </vehicle>
    <vehicle id="26" type="Car" depart="26.00">
        <route edges="47457281 47751765 47457278#1 47751789#0 47751789#1 228371106#2 228371106#3 47457387#1 47457387#2 -447469848#0 -38283578#2"/>
    </vehicle>
    <vehicle id="27" type="Sport" depart="27.00">
        <route edges="454067558#3 -454067558#3 -454067558#2 -47457265#1 -47457278#5 -47457278#4 -47457278#3 -47457278#1 47457278#1"/>
    </vehicle>
    <vehicle id="28" type="Car" depart="28.00">
        <route edges="47457272 47457271#1 47457278#5 -47457265#0 454067557#1 454067557#2 47457258#0"/>
    </vehicle>
    <vehicle id="29" type="Sport" depart="29.00">
        <route edges="47457272 47457271#1 47457278#5 47457265#1 47457265#2 -47457262#1"/>
    </vehicle>
    <vehicle id="30" type="Sport" depart="30.00">
        <route edges="47457278#0 47457278#1 47751789#0 47457292 228371106#1"/>
    </vehicle>
    <vehicle id="34" type="Car" depart="34.00">
        <route edges="47751835 47457387#2 447469848#1 447469848#2 447469848#3 47457260#0 47457261#0"/>
    </vehicle>
    <vehicle id="35" type="Sport" depart="35.00">
        <route edges="47751741#1 47751741#2 228371123#3 -447469848#7 -454067557#2 -454067557#1 47457265#0 47457265#1 454067558#2 47457262#1"/>
    </vehicle>
    <vehicle id="36" type="Car" depart="36.00">
        <route edges="-228371106#3 228371106#3 228371106#4 228371106#5 230769158#0 230769158#1 230769158#2 230769158#3"/>
    </vehicle>
    <vehicle id="37" type="Sport" depart="37.00">
        <route edges="47751789#1 228371106#2 228371106#3 228371106#4 228371106#5 230769158#0 -230769158#0"/>
    </vehicle>
    <vehicle id="38" type="Sport" depart="38.00">
        <route edges="-230769158#0 -447469848#1 -447469848#0 -38283578#2"/>
    </vehicle>
    <vehicle id="39" type="Sport" depart="39.00">
        <route edges="-447693571#2 447693571#2 47457259#4 47457259#5 47457259#6 47457259#7 47457259#8 47457259#9 333598111#1"/>
    </vehicle>
    <vehicle id="40" type="Sport" depart="40.00">
        <route edges="47751741#2 228371123#3 -447469848#7 -447469848#5 -447469848#4 -447469848#3 -447469848#2 230769158#0 230769158#1 47457259#0 47457259#2 47457259#4 47457259#5 47457259#6 47457259#7"/>
    </vehicle>
    <vehicle id="41" type="Car" depart="41.00">
        <route edges="447693571#2 47457259#4 47457259#5 47457259#6 47457259#7 47457259#8 47457259#9 333598111#1 333598111#2 -447469848#7 -447469848#5 -447469848#4 -447469848#3 -447469848#2 -447469848#1 -447469848#0 -38283578#2 -38283578#1 47457295#0 47457295#1 47457295#2"/>
    </vehicle>
    <vehicle id="42" type="Sport" depart="42.00">
        <route edges="447469848#7 -447469848#7 -447469848#5 -447469848#4 -447469848#3 -447469848#2 -447469848#1 -447469848#0 -38283578#2 -38283578#1 47457295#0 47457295#1 47457295#2 47457390"/>
    </vehicle>
    <vehicle id="43" type="Sport" depart="43.00">
        <route edges="-228371106#1 228371106#1 228371106#2 47457271#0 47457271#1 -47457278#4 -47457278#3 -47457278#1 47457278#1"/>
    </vehicle>
    <vehicle id="44" type="Sport" depart="44.00">
        <route edges="228371106#2 228371106#3 228371106#4 228371106#5 230769158#0 230769158#1 47457259#0 47457259#2 -447693571#2 447693571#2"/>
    </vehicle>
    <vehicle id="45" type="Car" depart="45.00">
        <route edges="47457278#0 47457278#1 47751789#0 47457272 47457271#1"/>
    </vehicle>
    <vehicle id="46" type="Sport" depart="46.00">
        <route edges="-47751768#0 47751768#0 47751768#1 47751741#1 47751741#2 47457266#1 47457267"/>
    </vehicle>
    <vehicle id="47" type="Car" depart="47.00">
        <route edges="-454067558#4 228371120#1 -447469848#2 230769158#0 230769158#1 47457259#0 47457259#2 -447693571#2"/>
    </vehicle>
    <vehicle id="48" type="Sport" depart="48.00">
        <route edges="-454067558#4 228371120#1"/>
    </vehicle>
    <vehicle id="50" type="Car" depart="50.00">
        <route edges="454067558#0 454067557#0 454067557#1 -47457267 47457266#2 47751741#1"/>
    </vehicle>
    <vehicle id="51" type="Car" depart="51.00">
        <route edges="47751768#1 47457285#0 47457285#1"/>
    </vehicle>
    <vehicle id="52" type="Car" depart="52.00">
        <route edges="454067558#3 -454067558#3 -454067558#2 -47457265#1 47457265#1"/>
    </vehicle>
    <vehicle id="53" type="Car" depart="53.00">
        <route edges="-228371106#2 228371106#2 228371106#3 228371106#4 47457262#0 454067558#3 228371120#1 447469848#3 447469848#4 447469848#5 -454067557#2"/>
    </vehicle>
    <vehicle id="54" type="Car" depart="54.00">
        <route edges="454067558#4 454067558#0 454067558#1 -47457265#1 -47457278#5 -47457278#4 -47457278#3 47751789#0 47751789#1"/>
    </vehicle>
    <vehicle id="55" type="Sport" depart="55.00">
        <route edges="47457278#1 47457278#3 47457278#4 47457278#5 -47457265#0 454067557#1 454067557#2 447469848#7 228371124#0 228371124#2 228371124#3 228371125#0"/>
    </vehicle>
    <vehicle id="56" type="Sport" depart="56.00">
        <route edges="-47457278#5 47457278#5 47457265#1 -47457265#1"/>
    </vehicle>
    <vehicle id="57" type="Car" depart="57.00">
        <route edges="47457295#2 47457295#3 47457295#4 447469848#0 447469848#1 -228371106#5 47457262#0 47457262#1 -47457265#2 -47457265#1 -47457278#5"/>
    </vehicle>
    <vehicle id="59" type="Car" depart="59.00">
        <route edges="228371124#3 228371123#0 228371123#1 228371123#3 -447469848#7 -454067557#2 -454067557#1 47457265#0 47457265#1 454067558#2 -47457262#0 -228371106#4 -228371106#3 -228371106#2"/>
    </vehicle>
    <vehicle id="60" type="Sport" depart="60.00">
        <route edges="228371136 -668090809#3 -668090809#2 23070232#1 23070232#2"/>
    </vehicle>
    <vehicle id="61" type="Car" depart="61.00">
        <route edges="-333598111#1 333598111#1 333598111#2 -447469848#7 -454067557#2 -454067557#1 47457265#0 47457265#1 454067558#2 47457262#1"/>
    </vehicle>
    <vehicle id="62" type="Sport" depart="62.00">
        <route edges="-447469848#2 -228371106#5 47457262#0 454067558#3 454067558#4"/>
    </vehicle>
    <vehicle id="63" type="Sport" depart="63.00">
        <route edges="47457261#1 47751705#0 47751705#1 447469848#5 447469848#7 228371124#0 228371124#2 228371124#3 228371123#0"/>
    </vehicle>
    <vehicle id="64" type="Sport" depart="64.00">
        <route edges="47457259#8 47457259#9 333598111#1 333598111#2 228371124#0 228371124#2 45958281#0 228371123#1"/>
    </vehicle>
    <vehicle id="65" type="Car" depart="65.00">
        <route edges="-47457265#0 454067557#1 454067557#2 -454067557#2"/>
    </vehicle>
    <vehicle id="66" type="Car" depart="66.00">
        <route edges="47457257 -230769158#0 447469848#2 447469848#3 447469848#4 447469848#5 -454067557#2 454067557#2"/>
    </vehicle>
    <vehicle id="67" type="Sport" depart="67.00">
        <route edges="47457266#2 47751741#1 47751741#2 228371123#3 -447469848#7 -447469848#5 -447469848#4 -447469848#3 447469848#3"/>
    </vehicle>
    <vehicle id="69" type="Car" depart="69.00">
        <route edges="228371128#3 228371128#0 228371128#1 228371128#2 228371134#0 -668090809#3 -668090809#2 -228371126#1 228371126#1"/>
    </vehicle>
    <vehicle id="70" type="Sport" depart="70.00">
        <route edges="47457294#1 47457294#2 333598111#2 -447469848#7 -447469848#5 -447469848#4 -447469848#3 -447469848#2 -447469848#1 -447469848#0 -38283578#2 38283578#2"/>
    </vehicle>
    <vehicle id="73" type="Car" depart="73.00">
        <route edges="454067557#1 -454067557#1 -454067557#0 -454067558#0 454067558#0"/>
    </vehicle>
    <vehicle id="75" type="Sport" depart="75.00">
        <route edges="-228371106#4 228371106#4 228371106#5 230769158#0 230769158#1 230769158#2 447693568"/>
    </vehicle>
    <vehicle id="76" type="Sport" depart="76.00">
        <route edges="-228371125#1 -228371125#0 228371123#0 228371123#1 228371123#3 -447469848#7 -447469848#5 -447469848#4 -447469848#3 -447469848#2 -447469848#1 -447469848#0 -38283578#2 -38283578#1 47457295#0 47457295#1"/>
    </vehicle>
    <vehicle id="78" type="Car" depart="78.00">
        <route edges="-228371106#2 228371106#2 228371106#3 228371106#4 47457262#0 47457262#1 -47457265#2 -454067558#1 454067557#0 -454067557#0"/>
    </vehicle>
    <vehicle id="79" type="Sport" depart="79.00">
        <route edges="447469848#2 -447469848#2 -228371106#5 47457262#0 47457262#1 -47457265#2 -454067558#1 454067557#0 454067557#1"/>
    </vehicle>
    <vehicle id="80" type="Sport" depart="80.00">
        <route edges="-47457275 47457275"/>
    </vehicle>
    <vehicle id="81" type="Sport" depart="81.00">
        <route edges="454067557#2 -454067557#2 -454067557#1 47457265#0 47457265#1 454067558#2 -47457262#0 -228371106#4 228371102#0 228371102#1"/>
    </vehicle>
    <vehicle id="83" type="Sport" depart="83.00">
        <route edges="47457278#0 47457278#1 47457278#3 47457278#4 47457278#5 -47457265#0 454067557#1 454067557#2 47457258#0 47457294#2 -333598111#1"/>
    </vehicle>
    <vehicle id="85" type="Sport" depart="85.00">
        <route edges="-47457267 47457267 454067557#2 -447469848#5 -447469848#4 -447469848#3 -447469848#2 230769158#0 230769158#1 47457259#0 47457259#2 47457259#4 47457259#5 47457259#6 47457259#7"/>
    </vehicle>
    <vehicle id="87" type="Car" depart="87.00">
        <route edges="230769158#1 -230769158#1 -230769158#0 -228371106#5 47457262#0 -454067558#2"/>
    </vehicle>
    <vehicle id="88" type="Car" depart="88.00">
        <route edges="230769158#0 -230769158#0 447469848#2 447469848#3 447469848#4 447469848#5"/>
    </vehicle>
    <vehicle id="89" type="Sport" depart="89.00">
        <route edges="47457267 -454067557#1 47457265#0 47457265#1 454067558#2 -47457262#0"/>
    </vehicle>
    <vehicle id="91" type="Car" depart="91.00">
        <route edges="47457387#1 47457387#2 447469848#1 -228371106#5 -228371106#4 -228371106#3 47457271#0 47457271#1 -47457278#4 -47457278#3 47457278#3"/>
    </vehicle>
    <vehicle id="92" type="Sport" depart="92.00">
        <route edges="-454067558#4 454067558#4 454067558#0 454067557#0"/>
    </vehicle>
    <vehicle id="93" type="Sport" depart="93.00">
        <route edges="-47457262#0 47457262#0 47457262#1 228371120#0"/>
    </vehicle>
    <vehicle id="95" type="Car" depart="95.00">
        <route edges="47457271#0 47457271#1 47457278#5 -47457265#0 454067557#1 454067557#2 447469848#7 -333598111#2"/>
    </vehicle>
    <vehicle id="96" type="Car" depart="96.00">
        <route edges="454067557#1 454067557#2 -447469848#5 -447469848#4 47457260#0"/>
    </vehicle>
    <vehicle id="98" type="Sport" depart="98.00">
        <route edges="228371124#3 228371123#0 228371123#1 228371123#3 -447469848#7 -447469848#5 -447469848#4 -447469848#3 -447469848#2 -447469848#1 -447469848#0 -38283578#2 -38283578#1 47457295#0 47457295#1 47457295#2 47457390"/>
    </vehicle>
    <vehicle id="99" type="Sport" depart="99.00">
        <route edges="47457265#1 454067558#2 -47457262#0 -228371106#4 228371102#0 228371102#1"/>
    </vehicle>
    <vehicle id="100" type="Car" depart="100.00">
        <route edges="-47457278#1 47457278#1 47751789#0 47457292 228371106#1"/>
    </vehicle>
    <vehicle id="101" type="Sport" depart="101.00">
        <route edges="47457295#2 47457295#3 47457295#4 447469848#0 447469848#1 447469848#2 447469848#3 47457260#0 47457294#0 47457294#1"/>
    </vehicle>
    <vehicle id="102" type="Car" depart="102.00">
        <route edges="47751741#2 228371123#3 -447469848#7 -447469848#5 -447469848#4 -447469848#3 -447469848#2 -447469848#1"/>
    </vehicle>
    <vehicle id="103" type="Car" depart="103.00">
        <route edges="-230769158#1 -230769158#0 447469848#2 447469848#3 447469848#4 447469848#5 47457258#0 47457258#1"/>
    </vehicle>
    <vehicle id="105" type="Sport" depart="105.00">
        <route edges="-230769158#0 -228371106#5 -228371106#4 -228371106#3 47457271#0 47457271#1 -47457278#4 47457278#4"/>
    </vehicle>
    <vehicle id="106" type="Sport" depart="106.00">
        <route edges="47457258#0 47457294#2 333598111#2 228371124#0 228371124#2 228371124#3 228371125#0"/>
    </vehicle>
    <vehicle id="107" type="Sport" depart="107.00">
        <route edges="447469848#1 447469848#2 447469848#3 447469848#4 447469848#5 -454067557#2 -47457267 47457266#2 47457285#0"/>
    </vehicle>
    <vehicle id="110" type="Sport" depart="110.00">
        <route edges="228371106#1 228371106#2 228371106#3 47457387#1 47457387#2 -447469848#0 -38283578#2 -38283578#1 47457295#0 47457295#1 47457295#2 47457390"/>
    </vehicle>
    <vehicle id="111" type="Car" depart="111.00">
        <route edges="-454067558#1 454067558#1 454067558#2 -47457262#0 228371106#5 -447469848#1"/>
    </vehicle>
    <vehicle id="112" type="Car" depart="112.00">
        <route edges="-228371106#2 228371106#2 228371106#3 228371106#4 47457262#0 454067558#3 228371120#1 447469848#3 447469848#4 447469848#5 -447469848#5"/>
    </vehicle>
    <vehicle id="114" type="Car" depart="114.00">
        <route edges="-228371106#5 228371106#5 230769158#0 -230769158#0"/>
    </vehicle>
    <vehicle id="115" type="Sport" depart="115.00">
        <route edges="-230769158#1 230769158#1"/>
    </vehicle>
    <vehicle id="116" type="Car" depart="116.00">
        <route edges="47457288 47751741#2 228371123#3 -447469848#7 -454067557#2"/>
    </vehicle>
    <vehicle id="117" type="Sport" depart="117.00">
        <route edges="447469848#7 -447469848#7 -454067557#2 -454067557#1 47457265#0 -47457278#5 -47457278#4 -47457278#3 47751789#0 47457272"/>
    </vehicle>
    <vehicle id="118" type="Car" depart="118.00">
        <route edges="47457266#1 47457267 -454067557#1 -454067557#0 454067557#0"/>
    </vehicle>
    <vehicle id="119" type="Sport" depart="119.00">
        <route edges="47457278#1 47457278#3 47457278#4 47457278#5 47457265#1 47457265#2 228371120#0 -454067558#3"/>
    </vehicle>
    <vehicle id="120" type="Sport" depart="120.00">
        <route edges="-47457267 47457267 454067557#2"/>
    </vehicle>
    <vehicle id="121" type="Sport" depart="121.00">
        <route edges="228371106#3 228371106#4 228371106#5 47751835"/>
    </vehicle>
    <vehicle id="122" type="Sport" depart="122.00">
        <route edges="-38283578#1 38283578#1 38283578#2 447469848#0 447469848#1 -228371106#5 -228371106#4 -228371106#3 47457271#0 47457271#1 47457271#2 47751768#0 47751768#1"/>
    </vehicle>
    <vehicle id="123" type="Car" depart="123.00">
        <route edges="-47457262#0 -228371106#4 -228371106#3 -228371106#2 -228371106#1 -228371106#0"/>
    </vehicle>
    <vehicle id="128" type="Sport" depart="128.00">
        <route edges="228371124#0 228371123#3 -447469848#7 -454067557#2 -454067557#1 47457265#0 47457265#1 454067558#2 -47457262#0 -228371106#4 -228371106#3 -228371106#2"/>
    </vehicle>
    <vehicle id="129" type="Car" depart="129.00">
        <route edges="-230769158#2 -230769158#1 -230769158#0 447469848#2 447469848#3 447469848#4 447469848#5 447469848#7"/>
    </vehicle>
    <vehicle id="130" type="Sport" depart="130.00">
        <route edges="-23070232#1 -228371126#1"/>
    </vehicle>
    <vehicle id="132" type="Sport" depart="132.00">
        <route edges="-228371106#3 228371106#3 228371106#4 47457262#0 47457262#1 -47457265#2 454067558#2"/>
    </vehicle>
    <vehicle id="136" type="Car" depart="136.00">
        <route edges="-228371125#0 228371123#0 228371123#1 228371123#3 -447469848#7 -454067557#2 -454067557#1 47457265#0 47457265#1 454067558#2 -47457262#0 228371106#5"/>
    </vehicle>
    <vehicle id="137" type="Sport" depart="137.00">
        <route edges="-454067558#4 -454067558#3 -454067558#2 -47457265#1 -47457278#5 -47457278#4 47457278#4"/>
    </vehicle>
    <vehicle id="138" type="Car" depart="138.00">
        <route edges="47457259#7 47457259#8 47457259#9 333598111#1 333598111#2 228371124#0 228371124#2 228371124#3 228371125#0 228371125#1"/>
    </vehicle>
    <vehicle id="139" type="Car" depart="139.00">
        <route edges="-230769158#2 -230769158#1 -230769158#0 447469848#2 447469848#3 447469848#4 447469848#5 447469848#7 228371124#0 47457266#1"/>
    </vehicle>
    <vehicle id="140" type="Car" depart="140.00">
        <route edges="454067558#2 -47457262#0 47457262#0"/>
    </vehicle>
    <vehicle id="141" type="Car" depart="141.00">
        <route edges="447469848#1 -228371106#5 -228371106#4 -228371106#3 47457271#0 47457271#1 47457271#2 47751768#0 -47751768#0"/>
    </vehicle>
    <vehicle id="143" type="Sport" depart="143.00">
        <route edges="-454067558#4 228371120#1 447469848#3 47457260#0 47457261#0 47457261#1"/>
    </vehicle>
    <vehicle id="144" type="Car" depart="144.00">
        <route edges="333598111#2 228371124#0 47457266#1 47457266#2 -47751768#1"/>
    </vehicle>
    <vehicle id="145" type="Car" depart="145.00">
        <route edges="230769158#1 47457259#0 47457259#2"/>
    </vehicle>
    <vehicle id="146" type="Sport" depart="146.00">
        <route edges="228371120#1 447469848#3 447469848#4 447469848#5 47457258#0 47457294#2 333598111#2"/>
    </vehicle>
    <vehicle id="148" type="Sport" depart="148.00">
        <route edges="228371120#1 -447469848#2 -447469848#1 -447469848#0"/>
    </vehicle>
    <vehicle id="149" type="Sport" depart="149.00">
        <route edges="228371120#1 -447469848#2 -228371106#5 47457262#0 454067558#3 454067558#4"/>
    </vehicle>
    <vehicle id="150" type="Car" depart="150.00">
        <route edges="-454067557#1 47457265#0"/>
    </vehicle>
    <vehicle id="152" type="Sport" depart="152.00">
        <route edges="228371123#1 228371123#3 -447469848#7 -447469848#5 -447469848#4 47457260#0"/>
    </vehicle>
    <vehicle id="153" type="Sport" depart="153.00">
        <route edges="333598111#1 333598111#2 -447469848#7 -454067557#2 -454067557#1 -454067557#0 454067557#0"/>
    </vehicle>
    <vehicle id="154" type="Car" depart="154.00">
        <route edges="228371123#1 228371123#3 -447469848#7 -447469848#5 -447469848#4 -447469848#3 -447469848#2 230769158#0 230769158#1 47457259#0 47457259#2 -447693571#2"/>
    </vehicle>
    <vehicle id="156" type="Sport" depart="156.00">
        <route edges="47751765 47457278#1 47457278#3 47457278#4 47457278#5 -47457265#0 454067557#1 -47457267 47457267"/>
    </vehicle>
    <vehicle id="158" type="Car" depart="158.00">
        <route edges="47457258#0 47457294#2 333598111#2 -447469848#7 -454067557#2 -454067557#1 47457265#0"/>
    </vehicle>
    <vehicle id="159" type="Sport" depart="159.00">
        <route edges="-230769158#2 -230769158#1 -230769158#0 -228371106#5 -228371106#4 47457387#1"/>
    </vehicle>
    <vehicle id="161" type="Car" depart="161.00">
        <route edges="-454067558#1 454067557#0 454067557#1 454067557#2 447469848#7 228371124#0 47457266#1"/>
    </vehicle>
    <vehicle id="162" type="Car" depart="162.00">
        <route edges="47457278#0 47457278#1 47457278#3 47457278#4 47457278#5 47457265#1 47457265#2"/>
    </vehicle>
    <vehicle id="163" type="Sport" depart="163.00">
        <route edges="-23070232#2 -23070232#1 668090809#2 -668090809#2"/>
    </vehicle>
    <vehicle id="164" type="Car" depart="164.00">
        <route edges="47457295#2 47457295#3 47457295#4 447469848#0 447469848#1 447469848#2 447469848#3 447469848#4 447469848#5 447469848#7 228371124#0 228371124#2 228371124#3 228371123#0"/>
    </vehicle>
    <vehicle id="165" type="Sport" depart="165.00">
        <route edges="47457259#9 333598111#1 333598111#2 -447469848#7 -447469848#5 -447469848#4 -447469848#3 -447469848#2"/>
    </vehicle>
    <vehicle id="166" type="Car" depart="166.00">
        <route edges="-47457281 47457276"/>
    </vehicle>
    <vehicle id="167" type="Car" depart="167.00">
        <route edges="47457295#3 47457295#4 447469848#0 447469848#1 230769158#0 230769158#1 -230769158#1"/>
    </vehicle>
    <vehicle id="168" type="Sport" depart="168.00">
        <route edges="-38283578#1 38283578#1 38283578#2 447469848#0 447469848#1 -228371106#5 -228371106#4 -228371106#3 47457271#0"/>
    </vehicle>
    <vehicle id="169" type="Car" depart="169.00">
        <route edges="-47457286 -47457285#0 -47751768#1 -47751768#0 47457276 47457278#4 47457278#5 47457265#1 47457265#2 228371120#0 454067558#4 454067558#0"/>
    </vehicle>
    <vehicle id="170" type="Sport" depart="170.00">
        <route edges="-47457265#1 47457265#1 454067558#2 -47457262#0 228371106#5 230769158#0 230769158#1 230769158#2 447693568"/>
    </vehicle>
    <vehicle id="171" type="Sport" depart="171.00">
        <route edges="454067557#2 -454067557#2 -454067557#1 -454067557#0 -454067558#0"/>
    </vehicle>
    <vehicle id="172" type="Sport" depart="172.00">
        <route edges="454067557#2 -447469848#5 -447469848#4 -447469848#3 -447469848#2 230769158#0 230769158#1 47457259#0 47457259#2 47457259#4"/>
    </vehicle>
    <vehicle id="174" type="Sport" depart="174.00">
        <route edges="47457259#2 47457259#4 47457259#5 47457259#6 47457259#7 47457259#8 47457259#9 333598111#1 333598111#2 -447469848#7 -447469848#5 -447469848#4 -447469848#3 -447469848#2 -447469848#1 -447469848#0 -38283578#2"/>
    </vehicle>
    <vehicle id="175" type="Car" depart="175.00">
        <route edges="-454067558#3 -47457262#0 228371106#5 230769158#0 230769158#1 47457259#0 47457259#2 47457259#4 47457259#5 47457259#6 47457259#7 47457259#8 47457259#9"/>
    </vehicle>
    <vehicle id="176" type="Sport" depart="176.00">
        <route edges="47457276 47457278#4 47457278#5 47457265#1 454067558#2 47457262#1"/>
    </vehicle>
    <vehicle id="177" type="Sport" depart="177.00">
        <route edges="47457265#1 47457265#2 228371120#0 228371120#1 447469848#3 47457260#0 47457294#0 47457294#1"/>
    </vehicle>
    <vehicle id="178" type="Car" depart="178.00">
        <route edges="47457295#3 47457295#4 447469848#0 447469848#1 -228371106#5 47457262#0 -47457262#0"/>
    </vehicle>
    <vehicle id="179" type="Sport" depart="179.00">
        <route edges="-454067558#3 -454067558#2 -454067558#1 454067557#0 454067557#1 454067557#2 47457258#0 47457294#2 -333598111#1 -333598111#0"/>
    </vehicle>
    <vehicle id="181" type="Sport" depart="181.00">
        <route edges="-447469848#5 -447469848#4 -447469848#3 -447469848#2 -228371106#5 -228371106#4 -228371106#3 -228371106#2 -228371106#1 228371106#1"/>
    </vehicle>
    <vehicle id="182" type="Car" depart="182.00">
        <route edges="-47457267 47457266#2 -47751768#1 -47751768#0 47457281 47751765"/>
    </vehicle>
    <vehicle id="183" type="Sport" depart="183.00">
        <route edges="-454067557#0 454067558#1 47457265#2 228371120#0 228371120#1 447469848#3 47457260#0 47457261#0 47457261#1"/>
    </vehicle>
    <vehicle id="185" type="Sport" depart="185.00">
        <route edges="-454067558#2 454067558#2 -47457262#0 -228371106#4 47457387#1"/>
    </vehicle>
    <vehicle id="186" type="Sport" depart="186.00">
        <route edges="-447469848#2 47751835"/>
    </vehicle>
    <vehicle id="187" type="Sport" depart="187.00">
        <route edges="47457295#4 447469848#0 447469848#1 447469848#2 447469848#3 447469848#4 447469848#5 447469848#7 -447469848#7"/>
    </vehicle>
    <vehicle id="188" type="Car" depart="188.00">
        <route edges="47457275 -47457275 -47751768#0 47457276 47457278#4 47457278#5 -47457265#0"/>
    </vehicle>
    <vehicle id="191" type="Car" depart="191.00">
        <route edges="47457278#4 47457278#5 47457265#1 47457265#2 228371120#0 228371120#1 447469848#3 447469848#4 447469848#5"/>
    </vehicle>
    <vehicle id="193" type="Sport" depart="193.00">
        <route edges="47457271#2 47457276 47457278#4 47457278#5 47457265#1 454067558#2 -47457262#0 228371106#5 -447469848#1 -447469848#0 -38283578#2 -38283578#1 38283578#1"/>
    </vehicle>
    <vehicle id="196" type="Sport" depart="196.00">
        <route edges="228371106#0 228371106#1 228371106#2 228371106#3 228371106#4 47457262#0 454067558#3 228371120#1 447469848#3 47457260#0 47457261#0 47457261#1"/>
    </vehicle>
    <vehicle id="198" type="Car" depart="198.00">
        <route edges="47457260#0 47457294#0 47751705#1 447469848#5 447469848#7 228371124#0 228371124#2"/>
    </vehicle>
    <vehicle id="199" type="Car" depart="199.00">
        <route edges="47457271#1 47457278#5 -47457265#0 454067557#1 454067557#2 447469848#7 228371124#0 228371124#2"/>
    </vehicle>
    <vehicle id="203" type="Sport" depart="203.00">
        <route edges="-333598111#2 333598111#2 -447469848#7 -447469848#5 -447469848#4 -447469848#3"/>
    </vehicle>
    <vehicle id="204" type="Car" depart="204.00">
        <route edges="228371123#0 228371123#1 47457266#1 47457266#2 47457285#0 47457285#1"/>