<?xml version="1.0" encoding="UTF-8"?>

<!-- generated on 07/24/19 12:06:01 by Eclipse SUMO duarouter Version 1.1.0
<configuration xmlns:xsi="http://www.w3.org/2001/XMLSchema-instance" xsi:noNamespaceSchemaLocation="http://sumo.dlr.de/xsd/duarouterConfiguration.xsd">

    <input>
        <net-file value="mapNetconvert.net.xml"/>
        <additional-files value="C:\Users\Neblis\Desktop\C4R\vehicles.add.xml"/>
        <route-files value="./models/random/trips.trips.xml"/>
    </input>

    <output>
        <output-file value="./models/random/routes.rou.xml"/>
        <alternatives-output value="./models/random/routes.rou.alt.xml"/>
    </output>

    <time>
        <begin value="0"/>
        <end value="60.0"/>
    </time>

    <report>
        <no-warnings value="true"/>
        <ignore-errors value="true"/>
        <no-step-log value="true"/>
    </report>

</configuration>
-->

<routes xmlns:xsi="http://www.w3.org/2001/XMLSchema-instance" xsi:noNamespaceSchemaLocation="http://sumo.dlr.de/xsd/routes_file.xsd">
    <vType id="Truck" length="3.00" minGap="1.00" maxSpeed="40.00" probability="0.50" carFollowModel="Krauss" accel="1.40" decel="5.00" sigma="0.5" tau="7.0"/>
    <vehicle id="0" type="Truck" depart="0.00">
        <route edges="-47457262#0 47457262#0 454067558#3 228371120#1 447469848#3 447469848#4 447469848#5 447469848#7"/>
    </vehicle>
    <vehicle id="1" type="Truck" depart="3.00">
        <route edges="47457294#0 47751705#1 -447469848#4 -447469848#3 -447469848#2 -228371106#5 -228371106#4 -228371106#3 47457271#0 47457271#1 -47457278#4 -47457278#3 47751789#0 47457272"/>
    </vehicle>
    <vType id="Sport" length="1.00" minGap="1.00" maxSpeed="80.00" probability="0.50" carFollowModel="Krauss" accel="3.00" decel="5.00" sigma="0.5" tau="7.0"/>
    <vehicle id="3" type="Sport" depart="9.00">
        <route edges="228371106#2 47457271#0 47457271#1 47457271#2 47457281 47751765"/>
    </vehicle>
    <vehicle id="5" type="Sport" depart="15.00">
        <route edges="-228371106#5 228371106#5 230769158#0 -230769158#0"/>
    </vehicle>
    <vehicle id="6" type="Truck" depart="18.00">
        <route edges="47457259#0 47457259#2 -447693571#2 -447693568 230769158#3"/>
    </vehicle>
    <vehicle id="7" type="Sport" depart="21.00">
        <route edges="47457260#0 47457257 230769158#1 230769158#2 447693568"/>
    </vehicle>
    <vehicle id="9" type="Truck" depart="27.00">
        <route edges="-447469848#4 -447469848#3 -447469848#2 -228371106#5 -228371106#4 -228371106#3 47457271#0 47457271#1 -47457278#4"/>
    </vehicle>
    <vehicle id="10" type="Sport" depart="30.00">
        <route edges="447469848#1 -228371106#5 -228371106#4 228371106#4"/>
    </vehicle>
    <vehicle id="12" type="Sport" depart="36.00">
        <route edges="47457271#1 -47457278#4 -47457278#3 47751789#0 47751789#1 -228371106#1"/>
    </vehicle>
    <vehicle id="14" type="Truck" depart="42.00">
        <route edges="-47457265#0 454067557#1 -47457267 47457266#2 -47751768#1"/>
    </vehicle>
    <vehicle id="15" type="Sport" depart="45.00">
        <route edges="228371106#4 47457262#0 47457262#1 228371120#0"/>
    </vehicle>
    <vehicle id="18" type="Sport" depart="54.00">
        <route edges="47457261#1 47751705#0 47751705#1 -447469848#4 -447469848#3 -447469848#2 -228371106#5 47457262#0 47457262#1 -47457265#2 -454067558#1"/>
    </vehicle>
</routes>
