<?xml version="1.0" encoding="UTF-8"?>

<!-- generated on 07/30/19 11:19:31 by Eclipse SUMO duarouter Version 1.1.0
<configuration xmlns:xsi="http://www.w3.org/2001/XMLSchema-instance" xsi:noNamespaceSchemaLocation="http://sumo.dlr.de/xsd/duarouterConfiguration.xsd">

    <input>
        <net-file value="mapNetconvert.net.xml"/>
        <additional-files value="C:\Users\Neblis\Desktop\C4R\vehicles.add.xml"/>
        <route-files value="models/random/trips.trips.xml"/>
    </input>

    <output>
        <output-file value="models/random/routes.rou.xml"/>
        <alternatives-output value="models/random/routes.rou.alt.xml"/>
    </output>

    <time>
        <begin value="0"/>
        <end value="60.0"/>
    </time>

    <report>
        <no-warnings value="true"/>
        <ignore-errors value="true"/>
        <no-step-log value="true"/>
    </report>

</configuration>
-->

<routes xmlns:xsi="http://www.w3.org/2001/XMLSchema-instance" xsi:noNamespaceSchemaLocation="http://sumo.dlr.de/xsd/routes_file.xsd">
    <vType id="Truck" length="3.00" minGap="1.00" maxSpeed="40.00" probability="0.50" carFollowModel="Krauss" accel="1.40" decel="5.00" sigma="0.5" tau="7.0"/>
    <vehicle id="0" type="Truck" depart="0.00">
        <route edges="-503322109 -503322108 -151790499 192053895#0 192053895#1 192053895#2 4928480#1 4928480#2 4928480#3 151790497"/>
    </vehicle>
    <vehicle id="1" type="Truck" depart="3.00">
        <route edges="503322107 559388067#2 559388067#3 4928480#1 4928480#2 4928480#3 4928480#4 24527785 174600937#1 174600937#2"/>
    </vehicle>
    <vType id="Car" length="1.00" minGap="1.00" maxSpeed="50.00" probability="0.50" carFollowModel="Krauss" accel="3.00" decel="5.00" sigma="0.5" tau="7.0"/>
    <vehicle id="3" type="Car" depart="9.00">
        <route edges="404737753#4 404737753#5 404737753#6 692664116#0 692664116#1 -692664113 -191548220#1 4937455#1 247843232 247843212#0 247843212#1 247843212#2"/>
    </vehicle>
    <vehicle id="4" type="Car" depart="12.00">
        <route edges="5069788 5069764#0 5069764#1 5069579#3 339610125#1 339610125#2 -504582669 -49499523 -504582668 -492264418 -49515976 -43210309 -492264417 -49499527#1 -49499527#0 -26823383#3 -26823383#1 -375502623#1 375502623#1"/>
    </vehicle>
    <vType id="Sport" length="1.00" minGap="1.00" maxSpeed="80.00" probability="0.50" carFollowModel="Krauss" accel="3.00" decel="5.00" sigma="0.5" tau="7.0"/>
    <vehicle id="5" type="Sport" depart="15.00">
        <route edges="5735634#0 -5735634#0 -155498668#1 -155498668#0 155498665#1 155498665#2 39460498#0 39460498#1 389399200 35146834 35146833 51664682#0 -51664682#0"/>
    </vehicle>
    <vehicle id="6" type="Truck" depart="18.00">
        <route edges="39460498#0 39460498#1 389399200 156298619#1 156298619#2 156298619#3 156298619#4 156298619#5 156298619#6 576095534 155498678 333805726#1 333805726#2 333805726#3 333805726#4 155787047#0 155787047#2"/>
    </vehicle>
    <vehicle id="7" type="Sport" depart="21.00">
        <route edges="5069789#0 5069789#1 5069789#2 167633348#3 247499954#0 363595219#0 363595219#1 363595219#2 363595219#3 4937457#1 404737753#4 404737753#5 404737753#6 692664116#0 692664116#1 339610125#1 339610125#2 -504582669 -49499523 -504582668 -492264418 -49515976 5076407#0"/>
    </vehicle>
    <vehicle id="8" type="Car" depart="24.00">
        <route edges="266334238 164182181#0 164182181#1 4886412#1 4886412#2 492264415 13011895 50414549#0 50414549#1 209078964 -503322111 -503322110#1 -503322110#0 -177592548#2 -177592548#1 -177592548#0 -167633352 -167633355 -312969824#2 -312969824#1 -312969824#0 -53567948#2 -53567948#1 -53567948#0 -503322109 -503322108 -151790499 192053895#0 192053895#1"/>
    </vehicle>
    <vehicle id="9" type="Truck" depart="27.00">
        <route edges="-241952842#4 241952842#4 26780668#0 26780668#1 148754590#0 148754590#1 148754590#2 -26823383#3 26823383#3 49499527#0 49499527#1 492264417 43210309 49515976 492264418 5073138 5072860#0 5072860#1 5072860#2 5072860#3"/>
    </vehicle>
    <vehicle id="10" type="Sport" depart="30.00">
        <route edges="5069771#1 5069771#2 -314926669#0 -265714775 -51734829 51734830 266312298#0 266312298#1 209078965#0 209078965#1 266026705 492264416 49499527#0 49499527#1 492264417 -43210383 -24586368#2 24586368#2"/>
    </vehicle>
    <vehicle id="11" type="Truck" depart="33.00">
        <route edges="-247843212#4 247843212#4 247843212#5 49576592#0 49576592#1 49576592#2 26780668#0 26780668#1 148754590#0 148754590#1 148754590#2 -492264416 -266026705 50414549#0 50414549#1 209078964 51734829 265714775 5069747#0"/>
    </vehicle>
    <vehicle id="12" type="Car" depart="36.00">
        <route edges="-5069571#0 503322110#0 503322110#1 503322111 51734830 266312298#0 266312298#1"/>
    </vehicle>
    <vehicle id="13" type="Car" depart="39.00">
        <route edges="-167633355 -312969824#2 5072820#0 5072820#1 370683167#0 370683167#1 370683167#2 -5070123#1 -5070123#0 4937457#0 4937457#1 553918577#1 553918577#2 492264419#0 4937455#1 247843232 247843212#0 247843212#1 247843212#2 247843212#3 -247843212#3"/>
    </vehicle>
    <vehicle id="14" type="Car" depart="42.00">
        <route edges="-83115621#0 83115621#0 83115621#1 5063353#0 -83115617 -492264420 -4514255 247500048#0 247500048#1 24527785 248096128#0 247499957#1 247499957#2 49501589 5069789#0 5069789#1 5069789#2 167633348#3 247499954#0 363595219#0 363595219#1 363595219#2"/>
    </vehicle>
    <vehicle id="15" type="Sport" depart="45.00">
        <route edges="-5735634#0 -155498668#1 -155498668#0 155498665#1 155498665#2 39460498#0 39460498#1 -653944768 -4556912 266312307 262759994 36835292"/>
    </vehicle>
    <vehicle id="16" type="Sport" depart="48.00">
        <route edges="167633348#0 167633348#1 167633348#3 247499954#0 363595219#0 363595219#1 363595219#2 363595219#3 4937457#1 404737753#4 404737753#5 404737753#6 692664116#0 692664116#1 -5069579#3 -5069579#2 -5069579#1 -5069579#0 4834461#0"/>
    </vehicle>
    <vehicle id="17" type="Truck" depart="51.00">
        <route edges="-441319290#1 441319290#1 159016933#0 159016933#1 441319289 49587760#0 4850965 148754587#0 148754587#1 24527732#0 24527732#1 24527732#2 503322104 24527721#0 49501589 24527718#0 24527718#1 344453961 31281046 42759519 183215273#0 183215273#1 167633351 371173887#0 371173887#1"/>
    </vehicle>
    <vehicle id="18" type="Sport" depart="54.00">
        <route edges="5072820#1 -5072820#1 -5072820#0 -312969824#1 -312969824#0 -53567948#2 -53567948#1 -53567948#0 -503322109 -503322108 -151790499 -192053894 -29065531#1 -265714784#2 4515357 503322107 24586495#0 4515643#1 4515645 26812979"/>
    </vehicle>
    <vehicle id="19" type="Truck" depart="57.00">
        <route edges="4856361#1 5736030 266312307 262759994 4554219#1 156298614#0 156298614#2 284213281 88197989 156298613"/>
    </vehicle>
</routes>
