<?xml version="1.0" encoding="UTF-8"?>

<!-- generated on 07/05/19 12:55:27 by Eclipse SUMO duarouter Version 1.1.0
<configuration xmlns:xsi="http://www.w3.org/2001/XMLSchema-instance" xsi:noNamespaceSchemaLocation="http://sumo.dlr.de/xsd/duarouterConfiguration.xsd">

    <input>
        <net-file value="va.net.xml"/>
        <additional-files value="./models/random/vehicles.add.xml"/>
        <route-files value="./models/random/trips.trips.xml"/>
    </input>

    <output>
        <output-file value="./models/random/routes.rou.xml"/>
        <alternatives-output value="./models/random/routes.rou.alt.xml"/>
    </output>

    <time>
        <begin value="0"/>
        <end value="60.0"/>
    </time>

    <report>
        <no-warnings value="true"/>
        <ignore-errors value="true"/>
        <no-step-log value="true"/>
    </report>

</configuration>
-->

<routes xmlns:xsi="http://www.w3.org/2001/XMLSchema-instance" xsi:noNamespaceSchemaLocation="http://sumo.dlr.de/xsd/routes_file.xsd">
    <vType id="Truck" length="3.00" minGap="1.00" maxSpeed="40.00" probability="0.33" carFollowModel="Krauss" accel="1.40" decel="5.00" sigma="0.5" tau="7.0"/>
    <vehicle id="0" type="Truck" depart="0.00">
        <route edges="-454067557#1 454067557#1 454067557#2 447469848#7 228371124#0 228371124#1 228371124#2 45958281#0 45958281#1"/>
    </vehicle>
    <vType id="Sport" length="1.00" minGap="1.00" maxSpeed="80.00" probability="0.33" carFollowModel="Krauss" accel="3.00" decel="5.00" sigma="0.5" tau="7.0"/>
    <vehicle id="2" type="Sport" depart="2.00">
        <route edges="38283578#2 38283578#3 447469848#0 447469848#1 -228371106#6 -228371106#5 -228371106#4 -228371106#3 47457271#0 47457271#1 -47457278#4 -47457278#3"/>
    </vehicle>
    <vType id="Car" length="1.00" minGap="1.00" maxSpeed="50.00" probability="0.33" carFollowModel="Krauss" accel="3.00" decel="5.00" sigma="0.5" tau="7.0"/>
    <vehicle id="3" type="Car" depart="3.00">
        <route edges="228371124#3 228371123#0 228371123#1 228371123#2 228371123#3 -447469848#7 -454067557#2 -454067557#1 47457265#0 -47457278#5 -47457278#4 -47457278#3 47457278#3"/>
    </vehicle>
    <vehicle id="4" type="Car" depart="4.00">
        <route edges="47457295#5 447469848#0 447469848#1 -228371106#6 -228371106#5 -228371106#4 -228371106#3 47457271#0 47457271#1 47457271#2 47751772#0 47751772#1 47751768#0 -47751768#0"/>
    </vehicle>
    <vehicle id="7" type="Sport" depart="7.00">
        <route edges="47457257 230769158#1 230769158#2 447693568"/>
    </vehicle>
    <vehicle id="9" type="Truck" depart="9.00">
        <route edges="-47457281 47457281 47751765 47457278#1 47457278#2 47457278#3 47457278#4 47457271#2 47457276"/>
    </vehicle>
    <vehicle id="11" type="Truck" depart="11.00">
        <route edges="-47457278#1 47457278#1 47751789#0 47751789#1 228371106#2 228371106#3 47457387#0 47457387#1 47457387#2 -447469848#0 -38283578#3 -38283578#2"/>
    </vehicle>
    <vehicle id="12" type="Car" depart="12.00">
        <route edges="-454067557#1 454067557#1 454067557#2 447469848#7 -447469848#7"/>
    </vehicle>
    <vehicle id="13" type="Car" depart="13.00">
        <route edges="-447469848#4 -447469848#3 -447469848#2 -228371106#6 -228371106#5 -228371106#4 -228371106#3 -228371106#2 -228371106#1 228371106#1"/>
    </vehicle>
    <vehicle id="14" type="Car" depart="14.00">
        <route edges="-454067558#4 228371120#1 -447469848#2 -228371106#6 228371106#6"/>
    </vehicle>
    <vehicle id="18" type="Sport" depart="18.00">
        <route edges="47457258#0 47457294#2 333598111#2 -447469848#7 -454067557#2 -454067557#1 47457265#0 -47457278#5 47457271#2 47457276"/>
    </vehicle>
    <vehicle id="20" type="Sport" depart="20.00">
        <route edges="47457278#0 47457278#1 47457278#2 47457278#3 47457278#4 47457271#2 47751772#0 47751772#1 47751768#0 47751768#1"/>
    </vehicle>
    <vehicle id="21" type="Car" depart="21.00">
        <route edges="447469848#2 -447469848#2 -228371106#6 -228371106#5 -228371106#4 -228371106#3 -228371106#2 -228371106#1"/>
    </vehicle>
    <vehicle id="22" type="Sport" depart="22.00">
        <route edges="-47457262#1 -454067558#2 -47457265#1 -47457278#5 47457271#2 47751772#0 47751772#1 47457281 -47457281"/>
    </vehicle>
    <vehicle id="23" type="Car" depart="23.00">
        <route edges="-230769158#1 -230769158#0 447469848#2 447469848#3 447469848#4 447469848#5 447469848#6 447469848#7 228371124#0 228371124#1 228371124#2 228371124#3 228371125#0 47457288 47751741#2"/>
    </vehicle>
    <vehicle id="24" type="Truck" depart="24.00">
        <route edges="-447693571#1 -447693571#0 -447693539 -447693568 -230769158#2 47457259#0"/>
    </vehicle>
    <vehicle id="25" type="Truck" depart="25.00">
        <route edges="454067558#1 454067558#2 -47457262#0 -228371106#4 -228371106#3 -228371106#2 -228371106#1"/>
    </vehicle>
    <vehicle id="26" type="Truck" depart="26.00">
        <route edges="47457288 47751741#2 47751741#3 228371123#2 47457266#0 47457266#1 47457266#2 47751741#0 47457285#0"/>
    </vehicle>
    <vehicle id="27" type="Car" depart="27.00">
        <route edges="230769158#0 -230769158#0 -228371106#6 47751835 47457387#2"/>
    </vehicle>
    <vehicle id="28" type="Car" depart="28.00">
        <route edges="47457259#4 47457259#5 47457259#6 47457259#7 47457259#8 47457259#9 47457259#10 333598111#1 333598111#2 -447469848#7 -454067557#2 -454067557#1 47457265#0 -47457278#5 47457271#2 47457276"/>
    </vehicle>
    <vehicle id="29" type="Sport" depart="29.00">
        <route edges="-619424528 -668090809#3 -668090809#2 -668090809#1 -668090809#0 23070232#0 23070232#1 23070232#2 -23070232#2"/>
    </vehicle>
    <vehicle id="30" type="Sport" depart="30.00">
        <route edges="-47457278#5 47457278#5 47457265#1 454067558#2 -47457262#0 228371106#5 228371106#6 230769158#0 230769158#1 47457259#0 47457259#1 47457259#2 47457259#3 47457259#4"/>
    </vehicle>
    <vehicle id="31" type="Sport" depart="31.00">
        <route edges="-47457278#3 -47457278#2 47751789#0 47751789#1 228371106#2 228371106#3 228371106#4"/>
    </vehicle>
    <vehicle id="32" type="Truck" depart="32.00">
        <route edges="47457387#0 47457387#1 47457387#2 447469848#1 -228371106#6 -228371106#5 -228371106#4 -228371106#3"/>
    </vehicle>
    <vehicle id="33" type="Sport" depart="33.00">
        <route edges="47751789#0 47751789#1 228371106#2 228371106#3 228371106#4 228371106#5 228371106#6 230769158#0"/>
    </vehicle>
    <vehicle id="35" type="Sport" depart="35.00">
        <route edges="-333598111#2 333598111#2 -447469848#7 -447469848#6 -447469848#5 -447469848#4 -447469848#3 -447469848#2 -228371106#6 47751835"/>
    </vehicle>
    <vehicle id="37" type="Sport" depart="37.00">
        <route edges="-447469848#4 -447469848#3 -447469848#2 230769158#0 230769158#1 47457259#0 47457259#1 47457259#2 47457259#3 47457259#4"/>
    </vehicle>
    <vehicle id="39" type="Sport" depart="39.00">
        <route edges="47457266#0 228371124#1 47751741#3 228371123#2 228371123#3 -447469848#7 -447469848#6 -447469848#5 -447469848#4 -447469848#3 -447469848#2 -447469848#1 -447469848#0 -38283578#3 -38283578#2 -38283578#1 -38283578#0"/>
    </vehicle>
    <vehicle id="40" type="Car" depart="40.00">
        <route edges="228371124#2 45958281#0 228371123#1 228371123#2 228371123#3 -447469848#7 -447469848#6 -447469848#5 -447469848#4 -447469848#3 -447469848#2 230769158#0 230769158#1 230769158#2 447693568 -447693568"/>
    </vehicle>
    <vehicle id="41" type="Truck" depart="41.00">
        <route edges="-230769158#1 -230769158#0 447469848#2 447469848#3 47457260#0 47457260#1 47457261#0"/>
    </vehicle>
    <vehicle id="42" type="Sport" depart="42.00">
        <route edges="47457259#7 47457259#8 47457259#9 47457259#10 333598111#1 333598111#2 -447469848#7 -454067557#2 -454067557#1 47457265#0 47457265#1 47457265#2 228371120#0"/>
    </vehicle>
    <vehicle id="44" type="Sport" depart="44.00">
        <route edges="-333598111#2 333598111#2 -447469848#7 -454067557#2 -454067557#1 47457265#0 47457265#1 47457265#2 228371120#0 -454067558#3"/>
    </vehicle>
    <vehicle id="45" type="Car" depart="45.00">
        <route edges="47457271#2 47751772#0 47751772#1 47751768#0 47751768#1 47751741#0 47751741#1 47751741#2 47751741#3"/>
    </vehicle>
    <vehicle id="46" type="Sport" depart="46.00">
        <route edges="47457387#2 447469848#1 230769158#0 230769158#1 230769158#2 447693568 447693539"/>
    </vehicle>
    <vehicle id="47" type="Truck" depart="47.00">
        <route edges="47457259#0 47457259#1 47457259#2 47457259#3 47457259#4 47457259#5 47457259#6 47457259#7 47457259#8 47457259#9 47457259#10 333598111#1 333598111#2 228371124#0 228371124#1 228371124#2 228371124#3 228371125#0 228371125#1"/>
    </vehicle>
    <vehicle id="48" type="Sport" depart="48.00">
        <route edges="447693568 447693539 447693571#0 447693571#1 447693571#2 47457259#4 47457259#5 47457259#6 47457259#7 47457259#8 47457259#9 47457259#10 333598111#1 333598111#2 228371124#0 228371124#1 228371124#2 45958281#0 228371123#1"/>
    </vehicle>
    <vehicle id="50" type="Truck" depart="50.00">
        <route edges="-447693571#2 -447693571#1 -447693571#0 -447693539 -447693568 -230769158#2 -230769158#1 -230769158#0 230769158#0"/>
    </vehicle>
    <vehicle id="51" type="Car" depart="51.00">
        <route edges="47457265#2 -47457265#2 -47457265#1 -47457278#5 47457271#2"/>
    </vehicle>
    <vehicle id="52" type="Truck" depart="52.00">
        <route edges="-447469848#0 447469848#0 447469848#1 -228371106#6 -228371106#5 -228371106#4 -228371106#3 47457271#0 47457271#1 -47457278#4 -47457278#3 -47457278#2 -47457278#1 -47457278#0"/>
    </vehicle>
    <vehicle id="53" type="Truck" depart="53.00">
        <route edges="47457260#1 47457261#0 47457261#1 47751705#0 47751705#1"/>
    </vehicle>
    <vehicle id="54" type="Truck" depart="54.00">
        <route edges="47751789#1 228371106#2 228371106#3 228371106#4 47457262#0 47457262#1 -47457265#2 47457265#2"/>
    </vehicle>
    <vehicle id="55" type="Sport" depart="55.00">
        <route edges="228371106#1 228371106#2 47457271#0 47457271#1 47457271#2 47751772#0 47751772#1 47751768#0 47751768#1 -47751768#1"/>
    </vehicle>
    <vehicle id="56" type="Car" depart="56.00">
        <route edges="-454067558#0 -454067558#4 228371120#1 -447469848#2 447469848#2"/>
    </vehicle>
    <vehicle id="57" type="Car" depart="57.00">
        <route edges="47751768#0 47751768#1 47751741#0 47751741#1 47751741#2 47751741#3 228371123#2 47457266#0 47457266#1 47457266#2"/>
    </vehicle>
    <vehicle id="58" type="Sport" depart="58.00">
        <route edges="-47457278#5 47457278#5 47457265#1 454067558#2 -47457262#0 228371106#5 228371106#6 -447469848#1 -447469848#0 447469848#0"/>
    </vehicle>
</routes>
