<?xml version="1.0" encoding="UTF-8"?>

<!-- generated on 08/27/19 12:29:33 by Eclipse SUMO duarouter Version 1.2.0
<configuration xmlns:xsi="http://www.w3.org/2001/XMLSchema-instance" xsi:noNamespaceSchemaLocation="http://sumo.dlr.de/xsd/duarouterConfiguration.xsd">

    <input>
        <net-file value="mapNetconvert.net.xml"/>
        <additional-files value="C:\Users\darkm\Documents\Mogen\vehicles.add.xml"/>
        <route-files value="models/random/trips.trips.xml"/>
    </input>

    <output>
        <output-file value="models/random/routes.rou.xml"/>
        <alternatives-output value="models/random/routes.rou.alt.xml"/>
    </output>

    <time>
        <begin value="0"/>
        <end value="1.0"/>
    </time>

    <report>
        <no-warnings value="true"/>
        <ignore-errors value="true"/>
        <no-step-log value="true"/>
    </report>

</configuration>
-->

<routes xmlns:xsi="http://www.w3.org/2001/XMLSchema-instance" xsi:noNamespaceSchemaLocation="http://sumo.dlr.de/xsd/routes_file.xsd">
    <vType id="Truck" length="3.00" minGap="1.00" maxSpeed="40.00" probability="0.50" carFollowModel="Krauss" accel="1.40" decel="5.00" sigma="0.5" tau="7.0"/>
    <vehicle id="0" type="Truck" depart="0.00">
        <route edges="-47368030#1 47368030#1 -38569906#4 -38569906#3 -47368036 47368031#4"/>
    </vehicle>
    <vehicle id="1" type="Truck" depart="0.02">
        <route edges="47360668 144152790#1 -47360670 -47360669#1 228371145"/>
    </vehicle>
    <vType id="Sport" length="1.00" minGap="1.00" maxSpeed="80.00" probability="0.50" carFollowModel="Krauss" accel="3.00" decel="5.00" sigma="0.5" tau="7.0"/>
    <vehicle id="2" type="Sport" depart="0.04">
        <route edges="-38569906#1 -38569906#0 38569906#0 38569906#1 38569906#3 -38569906#3"/>
    </vehicle>
    <vType id="Car" length="1.00" minGap="1.00" maxSpeed="50.00" probability="0.50" carFollowModel="Krauss" accel="3.00" decel="5.00" sigma="0.5" tau="7.0"/>
    <vehicle id="3" type="Car" depart="0.06">
        <route edges="-47370578#3 -47370578#2 -47370578#1 -47370578#0 47368026#2 47360626#6 47360626#1 47360626#2 47360626#3 47360626#4 -47425124#2 -47425124#1 47360624#0"/>
    </vehicle>
    <vehicle id="4" type="Car" depart="0.08">
        <route edges="-47425124#1 -47425124#0 47360603#2 38613731 -38569906#10"/>
    </vehicle>
    <vehicle id="6" type="Truck" depart="0.12">
        <route edges="47370610#0 47370567#1 47370567#2 47370606#4 -47368035 47368031#0 47368032#0 47368032#1 47368027"/>
    </vehicle>
    <vehicle id="7" type="Sport" depart="0.14">
        <route edges="47360654#1 47360627 47360626#3 47360626#4 47360626#5 47360626#6 47360626#1 47360626#2 -47360627"/>
    </vehicle>
    <vehicle id="8" type="Car" depart="0.16">
        <route edges="47370609#1 -47370578#1 -47370578#0 -47368026#1 -47368026#0 38569906#8 38569906#9 -38569906#9"/>
    </vehicle>
    <vehicle id="9" type="Truck" depart="0.18">
        <route edges="-47368027 47368032#2 -37975231#1 -37975231#0 -38569906#6 -38569906#5 -38569906#4 -47370606#4 -47370606#3 47370578#3 47370578#4 47425143#0 228371100#5 144152790#0 144152790#1 -47360670 47360669#2 47360669#3 47360671"/>
    </vehicle>
    <vehicle id="10" type="Sport" depart="0.20">
        <route edges="47360669#1 47360669#2 47360669#3 47360671 144152790#3"/>
    </vehicle>
    <vehicle id="11" type="Truck" depart="0.22">
        <route edges="-47425124#2"/>
    </vehicle>
    <vehicle id="12" type="Car" depart="0.24">
        <route edges="-47360669#2 47360669#2 47360669#3 47360672 618619080#3 47360654#0 -228371137#1 -228371137#0 228371138#0 228371138#1"/>
    </vehicle>
    <vehicle id="13" type="Car" depart="0.26">
        <route edges="-47370578#4 -47370578#3 47370606#3 47370606#4 38569906#4 38569906#5 38569906#6"/>
    </vehicle>
    <vehicle id="14" type="Car" depart="0.28">
        <route edges="228371138#0 228371138#1 47360626#2 47360626#3 47360626#4 47360626#5 -47368026#2 47370578#0 47370578#1 47370578#2 47370578#3 47370578#4 47425143#0 228371100#5 144152790#0 144152790#1 144152790#2 -47360671"/>
    </vehicle>
    <vehicle id="15" type="Sport" depart="0.30">
        <route edges="38319153#0 38319153#1 38319153#2 -47368034 47368031#3 47368031#4 47368035 -47370606#4 -47370606#3 47370578#3 47370578#4 47425143#0 228371100#5 -228371100#5"/>
    </vehicle>
    <vehicle id="16" type="Sport" depart="0.32">
        <route edges="144152790#0 144152790#1 -47360670 -47360669#1 228371145 228373950#2 -47370578#4 -47370578#3 47370606#3 47370606#4 -38569906#3 38569906#3"/>
    </vehicle>
    <vehicle id="17" type="Truck" depart="0.34">
        <route edges="47368033 38319153#2 -47368034 47368031#3 47368036 38569906#3 38569906#4 38569906#5 47370610#0 47370567#1"/>
    </vehicle>
    <vehicle id="18" type="Sport" depart="0.36">
        <route edges="47360654#0 47360654#1 47360627 47360626#3 47360626#4 47360626#5 47360626#6"/>
    </vehicle>
    <vehicle id="19" type="Truck" depart="0.38">
        <route edges="-47371425#0 -228371100#1 -228371100#0 228371097 702265271#1 38569906#0 38569906#1 -38569906#1"/>
    </vehicle>
    <vehicle id="20" type="Sport" depart="0.40">
        <route edges="38569906#1 38569906#3 -47370606#4 -47370606#3 47370578#3 47370578#4 47425143#0 228371100#5 144152790#0 144152790#1 -47360670 47360669#2 47360669#3"/>
    </vehicle>
    <vehicle id="21" type="Car" depart="0.42">
        <route edges="228371137#1 47360654#1 -47360654#1"/>
    </vehicle>
    <vehicle id="22" type="Sport" depart="0.44">
        <route edges="-228371100#7 -228371100#6 -228371100#5 -47425143#0 -47370578#4 -47370578#3 47370606#3 47370606#4 -38569906#3"/>
    </vehicle>
    <vehicle id="23" type="Car" depart="0.46">
        <route edges="47360654#1 47360627 47360626#3 47360626#4 47360626#5 -47368026#2 47370578#0 47370578#1 47370578#2 47370578#3 -47370593#3 -47370593#1 47370593#1"/>
    </vehicle>
    <vehicle id="24" type="Truck" depart="0.48">
        <route edges="47368035 38569906#4 38569906#5 38569906#6 38569906#7 47368026#0 47368026#1 47368026#2 47360626#6 47360626#1 47360626#2 47360626#3 47360626#4 -47425124#2 -47425124#1 47360624#0"/>
    </vehicle>
    <vehicle id="25" type="Truck" depart="0.50">
        <route edges="-47370606#1 47370606#1 47370606#2 -47370578#2 -47370578#1 -47370578#0 47368026#2 47360626#6 47360626#1 47360626#2"/>
    </vehicle>
    <vehicle id="26" type="Truck" depart="0.52">
        <route edges="47360624#0 47360624#1 -47360654#2 47360627 47360626#3 47360626#4 47360626#5 -47368026#2 47370578#0 47370578#1 47370578#2 47370578#3 47370578#4 47425143#0 228371100#5 144152790#0 144152790#1 -47360670 -47360669#1 -47360669#0"/>
    </vehicle>
    <vehicle id="27" type="Car" depart="0.54">
        <route edges="38569906#3 38569906#4 47370609#0 47370609#1"/>
    </vehicle>
    <vehicle id="28" type="Car" depart="0.56">
        <route edges="228371100#6 -228371100#6 -228371100#5 -228371100#3 -228371100#1 -228371100#0 228371097 702265271#1 702265279"/>
    </vehicle>
    <vehicle id="29" type="Sport" depart="0.58">
        <route edges="38569906#10 702265280 -47360603#2 47425124#0 -47425124#0"/>
    </vehicle>
    <vehicle id="30" type="Sport" depart="0.60">
        <route edges="47368031#3 47368036 38569906#3 38569906#4 38569906#5 38569906#6 38569906#7 47368026#0 47368026#1 47368026#2 47360626#6 47360626#1 47360626#2 47360626#3 47360626#4 -47425124#2 -47425124#1 47360624#0"/>
    </vehicle>
    <vehicle id="31" type="Sport" depart="0.62">
        <route edges="47360663#0 -228371100#6 -228371100#5 -228371100#3 -228371100#1 -228371100#0 228371097 702265271#1 38569906#0 38569906#1 38569906#3 38569906#4 -47368030#1"/>
    </vehicle>
    <vehicle id="32" type="Truck" depart="0.64">
        <route edges="47370609#0 47370567#2 -47370606#3 47370578#3 47370578#4 47425143#0 228371100#5 144152790#0 144152790#1 -47360670"/>
    </vehicle>
    <vehicle id="33" type="Sport" depart="0.66">
        <route edges="228371100#1 -228371100#1 47370606#1 47370606#2 -47370578#2 -47370578#1 -47370578#0 47368026#2 47360626#6 47360626#1 47360626#2 47360626#3 47360626#4 -47425124#2 -47425124#1 47360624#0 47360624#1"/>
    </vehicle>
    <vehicle id="34" type="Truck" depart="0.68">
        <route edges="47371437#0 47371437#1 228371100#5 144152790#0 144152790#1 -47360670 -47360669#1 -47360669#0"/>
    </vehicle>
    <vehicle id="35" type="Sport" depart="0.70">
        <route edges="-47370616 -37975231#0 -38569906#6 -38569906#5 -38569906#4 -47368035 47368031#0 47368031#1 47368031#2"/>
    </vehicle>
    <vehicle id="36" type="Truck" depart="0.72">
        <route edges="-38569906#0 38569906#0 38569906#1 38569906#3 38569906#4 -47368030#1 -47368030#0 38319153#1"/>
    </vehicle>
    <vehicle id="37" type="Sport" depart="0.74">
        <route edges="-228371100#1 228371100#1 228371100#3 228371100#5 144152790#0 144152790#1 144152790#2 -47360671 47360672 228371173"/>
    </vehicle>
    <vehicle id="38" type="Sport" depart="0.76">
        <route edges="47370609#1 47370578#2 47370578#3 -47370593#3 -47370593#1 -228371100#1"/>
    </vehicle>
    <vehicle id="39" type="Sport" depart="0.78">
        <route edges="-47370593#1 47370593#1"/>
    </vehicle>
    <vehicle id="40" type="Car" depart="0.80">
        <route edges="47368031#1 47368031#2 47368031#3 47368031#4 47368035 -47370606#4 -47370606#3 47370578#3 47370578#4 47425143#0 228371100#5 144152790#0 144152790#1 144152790#2 144152790#3 -228371173 618619080#3 47360654#0"/>
    </vehicle>
    <vehicle id="41" type="Truck" depart="0.82">
        <route edges="47368030#0 47368030#1 38569906#5 38569906#6 38569906#7 47368026#0 47368026#1 47368026#2 47360626#6 47360649 228371138#0"/>
    </vehicle>
    <vehicle id="42" type="Sport" depart="0.84">
        <route edges="228371100#0 47370606#1 47370606#2 -47370578#2 -47370578#1 -47370578#0 -47368026#1 47370567#0"/>
    </vehicle>
    <vehicle id="43" type="Sport" depart="0.86">
        <route edges="-228371100#3 -228371100#1 -228371100#0 228371097 702265271#1 38569906#0 38569906#1"/>
    </vehicle>
    <vehicle id="44" type="Sport" depart="0.88">
        <route edges="-47370606#4 -47370606#3 -47370578#2 -47370578#1 -47370578#0 47368026#2 47360626#6 47360626#1 47360626#2 -47360627 47360654#2 47360654#3"/>
    </vehicle>
    <vehicle id="45" type="Car" depart="0.90">
        <route edges="-38569906#7 38569906#7 47368026#0 47368026#1 47368026#2 47360626#6 47360626#1 47360626#2 -47360627 -47360654#1"/>
    </vehicle>
    <vehicle id="46" type="Sport" depart="0.92">
        <route edges="228371138#0 228371138#1 47360626#2 47360626#3 47360626#4 47360626#5 -47368026#2 47370578#0 47370578#1 47370578#2 47370578#3 47370578#4 47425143#0 228371100#5 144152790#0 144152790#1 -47360670 47360669#2 47360669#3"/>
    </vehicle>
    <vehicle id="47" type="Truck" depart="0.94">
        <route edges="47360654#0 47360654#1 47360627 47360626#3 47360626#4 -47425124#2 -47425124#1 -47425124#0 47360603#2"/>
    </vehicle>
    <vehicle id="48" type="Sport" depart="0.96">
        <route edges="-47370616 -37975231#0 38569906#7 47368026#0 47368026#1 47368026#2 47360626#6 47360649 228371137#0"/>
    </vehicle>
    <vehicle id="49" type="Truck" depart="0.98">
        <route edges="-47368030#0 47368030#0 47368030#1 38569906#5 38569906#6 38569906#7 47368026#0 47368026#1 47368026#2 47360626#6 47360626#1 47360626#2 -47360627 47360654#2 47360654#3"/>
    </vehicle>
</routes>
