<?xml version="1.0" encoding="UTF-8"?>

<!-- generated on 08/01/19 09:51:36 by Eclipse SUMO duarouter Version 1.2.0
<configuration xmlns:xsi="http://www.w3.org/2001/XMLSchema-instance" xsi:noNamespaceSchemaLocation="http://sumo.dlr.de/xsd/duarouterConfiguration.xsd">

    <input>
        <net-file value="mapNetconvert.net.xml"/>
        <additional-files value="C:\Users\darkm\Desktop\C4R\vehicles.add.xml"/>
        <route-files value="models/random/trips.trips.xml"/>
    </input>

    <output>
        <output-file value="models/random/routes.rou.xml"/>
        <alternatives-output value="models/random/routes.rou.alt.xml"/>
    </output>

    <time>
        <begin value="0"/>
        <end value="60.0"/>
    </time>

    <report>
        <no-warnings value="true"/>
        <ignore-errors value="true"/>
        <no-step-log value="true"/>
    </report>

</configuration>
-->

<routes xmlns:xsi="http://www.w3.org/2001/XMLSchema-instance" xsi:noNamespaceSchemaLocation="http://sumo.dlr.de/xsd/routes_file.xsd">
    <vType id="Truck" length="3.00" minGap="1.00" maxSpeed="40.00" probability="0.50" carFollowModel="Krauss" accel="1.40" decel="5.00" sigma="0.5" tau="7.0"/>
    <vehicle id="0" type="Truck" depart="0.00">
        <route edges="47370578#1 47370578#2 47370578#3 47370578#4 47425143#0 228371100#5 144152790#0 144152790#1 144152790#2 144152790#3"/>
    </vehicle>
    <vehicle id="1" type="Truck" depart="3.00">
        <route edges="47368031#0 47368031#1 47368031#2 47368031#3 47368031#4 47368035 -47370606#4 -47370606#3 -47370578#2"/>
    </vehicle>
    <vType id="Sport" length="1.00" minGap="1.00" maxSpeed="80.00" probability="0.50" carFollowModel="Krauss" accel="3.00" decel="5.00" sigma="0.5" tau="7.0"/>
    <vehicle id="2" type="Sport" depart="6.00">
        <route edges="-228371149 47360669#3 47360672 618619080#3 47360654#0 47360654#1 47360627 47360626#3 47360626#4 -47425124#2 -47425124#1"/>
    </vehicle>
    <vType id="Car" length="1.00" minGap="1.00" maxSpeed="50.00" probability="0.50" carFollowModel="Krauss" accel="3.00" decel="5.00" sigma="0.5" tau="7.0"/>
    <vehicle id="3" type="Car" depart="9.00">
        <route edges="228371138#1 47360626#2 47360626#3 47360626#4 47360626#5 -47368026#2 -47368026#1 -47368026#0 -38569906#7 -38569906#6 -38569906#5 -47368030#1 47368032#1"/>
    </vehicle>
    <vehicle id="4" type="Car" depart="12.00">
        <route edges="144152790#1 -47360670 -47360669#1 228371145 228373950#2 -47370578#4 -47370578#3 47370606#3 47370606#4 38569906#4 38569906#5 38569906#6 38569906#7 38569906#8 38569906#9"/>
    </vehicle>
    <vehicle id="5" type="Sport" depart="15.00">
        <route edges="47368030#1 47370609#0 47370567#2 -47370606#3 47370578#3 47370578#4 47425143#0 228371100#5 144152790#0 144152790#1 144152790#2 144152790#3 618619080#2"/>
    </vehicle>
    <vehicle id="6" type="Truck" depart="18.00">
        <route edges="-37975231#0 38569906#7 38569906#8 37975229#0"/>
    </vehicle>
    <vehicle id="7" type="Sport" depart="21.00">
        <route edges="-47360669#2 -47360669#1 228371145 -228371145"/>
    </vehicle>
    <vehicle id="8" type="Car" depart="24.00">
        <route edges="-47370616 -37975231#0 -38569906#6 -38569906#5 -38569906#4 -47370606#4 -47370606#3 47370578#3 47370578#4 47425143#0 228371100#5 144152790#0 144152790#1 144152790#2 144152790#3 -228371173"/>
    </vehicle>
    <vehicle id="9" type="Truck" depart="27.00">
        <route edges="-47360669#0 47360669#0 228371145 228373950#2 -47370578#4 -47370593#3 229073333"/>
    </vehicle>
    <vehicle id="10" type="Sport" depart="30.00">
        <route edges="-47360654#2 47360627 47360626#3 47360626#4 47360626#5 -47368026#2 47370578#0 47370578#1 47370578#2 47370578#3 47370578#4 47425143#0 228371100#5 228371100#6"/>
    </vehicle>
    <vehicle id="11" type="Truck" depart="33.00">
        <route edges="702265271#0 702265271#1 38569906#0 38569906#1 38569906#3 38569906#4"/>
    </vehicle>
    <vehicle id="12" type="Car" depart="36.00">
        <route edges="47360624#0 -47368025 47360603#1 47360603#2 38613731 -38569906#10 -38569906#9 37975229#0 47425114"/>
    </vehicle>
    <vehicle id="13" type="Car" depart="39.00">
        <route edges="-47360669#0 47360669#0 228371145 228373950#2 47425143#0 -228371100#3 -228371100#1 228371100#1"/>
    </vehicle>
    <vehicle id="14" type="Car" depart="42.00">
        <route edges="-229073332 229073333"/>
    </vehicle>
    <vehicle id="15" type="Sport" depart="45.00">
        <route edges="47368025 47360624#1 -47360654#2 47360627 47360626#3 47360626#4 47360626#5 -47368026#2 47370578#0 47370578#1 47370578#2 47370578#3 47370578#4 47425143#0 228371100#5 144152790#0 144152790#1 -47360670"/>
    </vehicle>
    <vehicle id="16" type="Sport" depart="48.00">
        <route edges="38569906#6 38569906#7 47368026#0 47368026#1 47370578#0 47370578#1 47370578#2 47370578#3 47370578#4 47425143#0 228371100#5 144152790#0 144152790#1 144152790#2 -47360671 -47360669#3 -47360669#2"/>
    </vehicle>
    <vehicle id="17" type="Truck" depart="51.00">
        <route edges="47370567#2 -47370606#3 -47370578#2 -47370578#1 -47370578#0 47368026#2 47360626#6 47360626#0 47360649 228371137#0 -228371137#0"/>
    </vehicle>
    <vehicle id="18" type="Sport" depart="54.00">
        <route edges="228371100#5 -228371100#5 -47425143#0 -47370578#4 -47370578#3 47370606#3 47370606#4 -47368035 47368031#0 47368032#0 47368032#1 47368027"/>
    </vehicle>
    <vehicle id="19" type="Truck" depart="57.00">
        <route edges="47360627 47360626#3 47360626#4 47360626#5 -47368026#2 -47368026#1 -47368026#0 -38569906#7 37975231#0 -37975231#0"/>
    </vehicle>
</routes>
