<?xml version="1.0" encoding="UTF-8"?>
<!-- generated on 2019-08-23 12:28:01.822000 by $Id$
  options: -n mapNetconvert.net.xml <doubleminus>additional-file C:\Users\darkm\Documents\Mogen2\vehicles.add.xml -e 60 -p 3 -o models/random/trips.trips.xml -r models/random/routes.rou.xml <doubleminus>trip-attributes type='dist'
-->
<routes xmlns:xsi="http://www.w3.org/2001/XMLSchema-instance" xsi:noNamespaceSchemaLocation="http://sumo.dlr.de/xsd/routes_file.xsd">
    <trip id="0" depart="0.00" from="228373950#1" to="47371437#1" type='dist'/>
    <trip id="1" depart="3.00" from="-229073333" to="-47368030#1" type='dist'/>
    <trip id="2" depart="6.00" from="228371097" to="47360626#4" type='dist'/>
    <trip id="3" depart="9.00" from="47370578#2" to="47425124#2" type='dist'/>
    <trip id="4" depart="12.00" from="47360669#0" to="-47368025" type='dist'/>
    <trip id="5" depart="15.00" from="-228371100#0" to="47370606#1" type='dist'/>
    <trip id="6" depart="18.00" from="38569906#6" to="38319153#3" type='dist'/>
    <trip id="7" depart="21.00" from="47370606#2" to="-47370606#1" type='dist'/>
    <trip id="8" depart="24.00" from="38569906#9" to="47368030#1" type='dist'/>
    <trip id="9" depart="27.00" from="-47360621" to="47360603#2" type='dist'/>
    <trip id="10" depart="30.00" from="-38569906#9" to="38569906#1" type='dist'/>
    <trip id="11" depart="33.00" from="228371137#1" to="47360654#2" type='dist'/>
    <trip id="12" depart="36.00" from="47360671" to="47368026#1" type='dist'/>
    <trip id="13" depart="39.00" from="-38569906#6" to="-47368030#0" type='dist'/>
    <trip id="14" depart="42.00" from="702265271#0" to="47425156" type='dist'/>
    <trip id="15" depart="45.00" from="47360626#6" to="618619080#1" type='dist'/>
    <trip id="16" depart="48.00" from="47371437#1" to="37975231#0" type='dist'/>
    <trip id="17" depart="51.00" from="47368026#2" to="47370606#1" type='dist'/>
    <trip id="18" depart="54.00" from="47360654#2" to="47371437#0" type='dist'/>
    <trip id="19" depart="57.00" from="228371149" to="47425124#0" type='dist'/>
</routes>
