<?xml version="1.0" encoding="UTF-8"?>
<!-- generated on 2019-07-05 12:55:27.272000 by $Id$
  options: -n va.net.xml <doubleminus>additional-file ./models/random/vehicles.add.xml -e 60 -o ./models/random/trips.trips.xml -r ./models/random/routes.rou.xml <doubleminus>trip-attributes type='dist1'
-->
<routes xmlns:xsi="http://www.w3.org/2001/XMLSchema-instance" xsi:noNamespaceSchemaLocation="http://sumo.dlr.de/xsd/routes_file.xsd">
    <trip id="0" depart="0.00" from="-454067557#1" to="45958281#1" type='dist1'/>
    <trip id="1" depart="1.00" from="228371102#0" to="-447693568" type='dist1'/>
    <trip id="2" depart="2.00" from="38283578#2" to="-47457278#3" type='dist1'/>
    <trip id="3" depart="3.00" from="228371124#3" to="47457278#3" type='dist1'/>
    <trip id="4" depart="4.00" from="47457295#5" to="-47751768#0" type='dist1'/>
    <trip id="5" depart="5.00" from="-619424528" to="47751789#1" type='dist1'/>
    <trip id="6" depart="6.00" from="47457295#1" to="668090809#2" type='dist1'/>
    <trip id="7" depart="7.00" from="47457257" to="447693568" type='dist1'/>
    <trip id="8" depart="8.00" from="-228371185" to="47457286" type='dist1'/>
    <trip id="9" depart="9.00" from="-47457281" to="47457276" type='dist1'/>
    <trip id="10" depart="10.00" from="-454067557#2" to="23070232#2" type='dist1'/>
    <trip id="11" depart="11.00" from="-47457278#1" to="-38283578#2" type='dist1'/>
    <trip id="12" depart="12.00" from="-454067557#1" to="-447469848#7" type='dist1'/>
    <trip id="13" depart="13.00" from="-447469848#4" to="228371106#1" type='dist1'/>
    <trip id="14" depart="14.00" from="-454067558#4" to="228371106#6" type='dist1'/>
    <trip id="15" depart="15.00" from="228371136" to="47457265#0" type='dist1'/>
    <trip id="16" depart="16.00" from="47457262#0" to="228371126#1" type='dist1'/>
    <trip id="17" depart="17.00" from="447469848#4" to="23070232#1" type='dist1'/>
    <trip id="18" depart="18.00" from="47457258#0" to="47457276" type='dist1'/>
    <trip id="19" depart="19.00" from="47457257" to="-668090809#0" type='dist1'/>
    <trip id="20" depart="20.00" from="47457278#0" to="47751768#1" type='dist1'/>
    <trip id="21" depart="21.00" from="447469848#2" to="-228371106#1" type='dist1'/>
    <trip id="22" depart="22.00" from="-47457262#1" to="-47457281" type='dist1'/>
    <trip id="23" depart="23.00" from="-230769158#1" to="47751741#2" type='dist1'/>
    <trip id="24" depart="24.00" from="-447693571#1" to="47457259#0" type='dist1'/>
    <trip id="25" depart="25.00" from="454067558#1" to="-228371106#1" type='dist1'/>
    <trip id="26" depart="26.00" from="47457288" to="47457285#0" type='dist1'/>
    <trip id="27" depart="27.00" from="230769158#0" to="47457387#2" type='dist1'/>
    <trip id="28" depart="28.00" from="47457259#4" to="47457276" type='dist1'/>
    <trip id="29" depart="29.00" from="-619424528" to="-23070232#2" type='dist1'/>
    <trip id="30" depart="30.00" from="-47457278#5" to="47457259#4" type='dist1'/>
    <trip id="31" depart="31.00" from="-47457278#3" to="228371106#4" type='dist1'/>
    <trip id="32" depart="32.00" from="47457387#0" to="-228371106#3" type='dist1'/>
    <trip id="33" depart="33.00" from="47751789#0" to="230769158#0" type='dist1'/>
    <trip id="34" depart="34.00" from="23070232#2" to="47457266#1" type='dist1'/>
    <trip id="35" depart="35.00" from="-333598111#2" to="47751835" type='dist1'/>
    <trip id="36" depart="36.00" from="-228371126#1" to="47751741#3" type='dist1'/>
    <trip id="37" depart="37.00" from="-447469848#4" to="47457259#4" type='dist1'/>
    <trip id="38" depart="38.00" from="447693539" to="-23070232#1" type='dist1'/>
    <trip id="39" depart="39.00" from="47457266#0" to="-38283578#0" type='dist1'/>
    <trip id="40" depart="40.00" from="228371124#2" to="-447693568" type='dist1'/>
    <trip id="41" depart="41.00" from="-230769158#1" to="47457261#0" type='dist1'/>
    <trip id="42" depart="42.00" from="47457259#7" to="228371120#0" type='dist1'/>
    <trip id="43" depart="43.00" from="47457295#0" to="23070232#2" type='dist1'/>
    <trip id="44" depart="44.00" from="-333598111#2" to="-454067558#3" type='dist1'/>
    <trip id="45" depart="45.00" from="47457271#2" to="47751741#3" type='dist1'/>
    <trip id="46" depart="46.00" from="47457387#2" to="447693539" type='dist1'/>
    <trip id="47" depart="47.00" from="47457259#0" to="228371125#1" type='dist1'/>
    <trip id="48" depart="48.00" from="447693568" to="228371123#1" type='dist1'/>
    <trip id="49" depart="49.00" from="-447469848#3" to="23070232#0" type='dist1'/>
    <trip id="50" depart="50.00" from="-447693571#2" to="230769158#0" type='dist1'/>
    <trip id="51" depart="51.00" from="47457265#2" to="47457271#2" type='dist1'/>
    <trip id="52" depart="52.00" from="-447469848#0" to="-47457278#0" type='dist1'/>
    <trip id="53" depart="53.00" from="47457260#1" to="47751705#1" type='dist1'/>
    <trip id="54" depart="54.00" from="47751789#1" to="47457265#2" type='dist1'/>
    <trip id="55" depart="55.00" from="228371106#1" to="-47751768#1" type='dist1'/>
    <trip id="56" depart="56.00" from="-454067558#0" to="447469848#2" type='dist1'/>
    <trip id="57" depart="57.00" from="47751768#0" to="47457266#2" type='dist1'/>
    <trip id="58" depart="58.00" from="-47457278#5" to="447469848#0" type='dist1'/>
    <trip id="59" depart="59.00" from="-23070232#1" to="-47457265#2" type='dist1'/>
</routes>
