<?xml version="1.0" encoding="UTF-8"?>
<!-- generated on 2019-07-30 11:19:31.084000 by $Id$
  options: -n mapNetconvert.net.xml <doubleminus>additional-file C:\Users\Neblis\Desktop\C4R\vehicles.add.xml -e 60 -p 3 -o models/random/trips.trips.xml -r models/random/routes.rou.xml <doubleminus>trip-attributes type='dist'
-->
<routes xmlns:xsi="http://www.w3.org/2001/XMLSchema-instance" xsi:noNamespaceSchemaLocation="http://sumo.dlr.de/xsd/routes_file.xsd">
    <trip id="0" depart="0.00" from="-503322109" to="151790497" type='dist'/>
    <trip id="1" depart="3.00" from="503322107" to="174600937#2" type='dist'/>
    <trip id="2" depart="6.00" from="-383747440#0" to="5073085" type='dist'/>
    <trip id="3" depart="9.00" from="404737753#4" to="247843212#2" type='dist'/>
    <trip id="4" depart="12.00" from="5069788" to="375502623#1" type='dist'/>
    <trip id="5" depart="15.00" from="5735634#0" to="-51664682#0" type='dist'/>
    <trip id="6" depart="18.00" from="39460498#0" to="155787047#2" type='dist'/>
    <trip id="7" depart="21.00" from="5069789#0" to="5076407#0" type='dist'/>
    <trip id="8" depart="24.00" from="266334238" to="192053895#1" type='dist'/>
    <trip id="9" depart="27.00" from="-241952842#4" to="5072860#3" type='dist'/>
    <trip id="10" depart="30.00" from="5069771#1" to="24586368#2" type='dist'/>
    <trip id="11" depart="33.00" from="-247843212#4" to="5069747#0" type='dist'/>
    <trip id="12" depart="36.00" from="-5069571#0" to="266312298#1" type='dist'/>
    <trip id="13" depart="39.00" from="-167633355" to="-247843212#3" type='dist'/>
    <trip id="14" depart="42.00" from="-83115621#0" to="363595219#2" type='dist'/>
    <trip id="15" depart="45.00" from="-5735634#0" to="36835292" type='dist'/>
    <trip id="16" depart="48.00" from="167633348#0" to="4834461#0" type='dist'/>
    <trip id="17" depart="51.00" from="-441319290#1" to="371173887#1" type='dist'/>
    <trip id="18" depart="54.00" from="5072820#1" to="26812979" type='dist'/>
    <trip id="19" depart="57.00" from="4856361#1" to="156298613" type='dist'/>
</routes>
