<?xml version="1.0" encoding="UTF-8"?>
<!-- generated on 2019-08-26 12:09:40.430000 by $Id$
  options: -n mapNetconvert.net.xml <doubleminus>additional-file C:\Users\darkm\Documents\Mogen\vehicles.add.xml -e 120 -p 1 -o models/random/trips.trips.xml -r models/random/routes.rou.xml <doubleminus>trip-attributes type='dist'
-->
<routes xmlns:xsi="http://www.w3.org/2001/XMLSchema-instance" xsi:noNamespaceSchemaLocation="http://sumo.dlr.de/xsd/routes_file.xsd">
    <trip id="0" depart="0.00" from="-147444200#4" to="4338177#1" type='dist'/>
    <trip id="1" depart="1.00" from="-493690473#0" to="19781938#1" type='dist'/>
    <trip id="2" depart="2.00" from="-4487458#2" to="-4341807#1" type='dist'/>
    <trip id="3" depart="3.00" from="-41670868" to="558507476#2" type='dist'/>
    <trip id="4" depart="4.00" from="-147444234" to="-23003571" type='dist'/>
    <trip id="5" depart="5.00" from="8058998" to="424820210#1" type='dist'/>
    <trip id="6" depart="6.00" from="35009250#1" to="28713452" type='dist'/>
    <trip id="7" depart="7.00" from="-32061587#2" to="70128740#2" type='dist'/>
    <trip id="8" depart="8.00" from="18914786#0" to="25386555#0" type='dist'/>
    <trip id="9" depart="9.00" from="-268099439" to="-473773367#1" type='dist'/>
    <trip id="10" depart="10.00" from="-23915878#0" to="211732655#6" type='dist'/>
    <trip id="11" depart="11.00" from="6076168#0" to="272723242#1" type='dist'/>
    <trip id="12" depart="12.00" from="23040467#4" to="23040465" type='dist'/>
    <trip id="13" depart="13.00" from="24377401#0" to="670891080" type='dist'/>
    <trip id="14" depart="14.00" from="256250526#2" to="34169375#1" type='dist'/>
    <trip id="15" depart="15.00" from="26181747" to="4443336#0" type='dist'/>
    <trip id="16" depart="16.00" from="-8505549#1" to="33692881#3" type='dist'/>
    <trip id="17" depart="17.00" from="158373306#0" to="-180103966#4" type='dist'/>
    <trip id="18" depart="18.00" from="-23005181#0" to="8057308#0" type='dist'/>
    <trip id="19" depart="19.00" from="179702828" to="72856009" type='dist'/>
    <trip id="20" depart="20.00" from="-150644417" to="146472982#1" type='dist'/>
    <trip id="21" depart="21.00" from="17522732" to="4335198#0" type='dist'/>
    <trip id="22" depart="22.00" from="4312545" to="19782259" type='dist'/>
    <trip id="23" depart="23.00" from="4443364" to="446122098#2" type='dist'/>
    <trip id="24" depart="24.00" from="23916506#4" to="-7940936#8" type='dist'/>
    <trip id="25" depart="25.00" from="-23915878#2" to="-23005329" type='dist'/>
    <trip id="26" depart="26.00" from="269527720" to="-9721008#3" type='dist'/>
    <trip id="27" depart="27.00" from="8672368" to="4318633" type='dist'/>
    <trip id="28" depart="28.00" from="5121600#2" to="-7940935#1" type='dist'/>
    <trip id="29" depart="29.00" from="37284985#0" to="4353280" type='dist'/>
    <trip id="30" depart="30.00" from="4480656#0" to="-31454325" type='dist'/>
    <trip id="31" depart="31.00" from="8418940#0" to="-4453105" type='dist'/>
    <trip id="32" depart="32.00" from="314959283" to="-178693853" type='dist'/>
    <trip id="33" depart="33.00" from="22870498#0" to="6131825#0" type='dist'/>
    <trip id="34" depart="34.00" from="8080633" to="-23361379#3" type='dist'/>
    <trip id="35" depart="35.00" from="18913562#1" to="211732651#1" type='dist'/>
    <trip id="36" depart="36.00" from="8079312#2" to="-85241134#2" type='dist'/>
    <trip id="37" depart="37.00" from="169678057" to="-319148397#1" type='dist'/>
    <trip id="38" depart="38.00" from="272407172" to="4357543#1" type='dist'/>
    <trip id="39" depart="39.00" from="-4340733#2" to="9663377#0" type='dist'/>
    <trip id="40" depart="40.00" from="4352308#3" to="4429459" type='dist'/>
    <trip id="41" depart="41.00" from="-430031065" to="-583161627" type='dist'/>
    <trip id="42" depart="42.00" from="70266570" to="-8079314#2" type='dist'/>
    <trip id="43" depart="43.00" from="441154890#1" to="315056427#0" type='dist'/>
    <trip id="44" depart="44.00" from="147433964#2" to="-211334443#1" type='dist'/>
    <trip id="45" depart="45.00" from="45557620" to="4417317" type='dist'/>
    <trip id="46" depart="46.00" from="30626585#1" to="533508849" type='dist'/>
    <trip id="47" depart="47.00" from="5665641" to="-41680442#0" type='dist'/>
    <trip id="48" depart="48.00" from="5846670#3" to="-4436376" type='dist'/>
    <trip id="49" depart="49.00" from="4480951#0" to="533508844#1" type='dist'/>
    <trip id="50" depart="50.00" from="73273391" to="158384658#4" type='dist'/>
    <trip id="51" depart="51.00" from="-23347261#1" to="49014526#0" type='dist'/>
    <trip id="52" depart="52.00" from="4337499#1" to="4448989#0" type='dist'/>
    <trip id="53" depart="53.00" from="-4448993#4" to="390965172" type='dist'/>
    <trip id="54" depart="54.00" from="23128433#7" to="-32236663#1" type='dist'/>
    <trip id="55" depart="55.00" from="25067264" to="27096685#0" type='dist'/>
    <trip id="56" depart="56.00" from="158373295#0" to="32905699" type='dist'/>
    <trip id="57" depart="57.00" from="-652011319#3" to="4445821" type='dist'/>
    <trip id="58" depart="58.00" from="-4339135#2" to="-23385543" type='dist'/>
    <trip id="59" depart="59.00" from="343449605#4" to="180103966#5" type='dist'/>
    <trip id="60" depart="60.00" from="95797211#7" to="22870499#4" type='dist'/>
    <trip id="61" depart="61.00" from="18917166#0" to="4395515" type='dist'/>
    <trip id="62" depart="62.00" from="19578577#1" to="211406575#0" type='dist'/>
    <trip id="63" depart="63.00" from="-315047365#0" to="4419669" type='dist'/>
    <trip id="64" depart="64.00" from="4317217#7" to="37880073" type='dist'/>
    <trip id="65" depart="65.00" from="-9663377#1" to="210004995" type='dist'/>
    <trip id="66" depart="66.00" from="4498506#3" to="5081651#0" type='dist'/>
    <trip id="67" depart="67.00" from="147444206#0" to="272407111#1" type='dist'/>
    <trip id="68" depart="68.00" from="23040500" to="16090501" type='dist'/>
    <trip id="69" depart="69.00" from="-32908641#1" to="70265971" type='dist'/>
    <trip id="70" depart="70.00" from="-4335197#2" to="424286648#0" type='dist'/>
    <trip id="71" depart="71.00" from="-7940936#5" to="-22971476" type='dist'/>
    <trip id="72" depart="72.00" from="5088690" to="-117440382#2" type='dist'/>
    <trip id="73" depart="73.00" from="4498510#3" to="596934661#3" type='dist'/>
    <trip id="74" depart="74.00" from="28434343#9" to="17443921#1" type='dist'/>
    <trip id="75" depart="75.00" from="23040451" to="-147444234" type='dist'/>
    <trip id="76" depart="76.00" from="4310300#0" to="24479129#2" type='dist'/>
    <trip id="77" depart="77.00" from="506395645" to="45772220#1" type='dist'/>
    <trip id="78" depart="78.00" from="8435539" to="8052340#4" type='dist'/>
    <trip id="79" depart="79.00" from="27837375" to="549612262" type='dist'/>
    <trip id="80" depart="80.00" from="-24479203" to="79854450#0" type='dist'/>
    <trip id="81" depart="81.00" from="70265969" to="-8435547#0" type='dist'/>
    <trip id="82" depart="82.00" from="191732565#3" to="-4310276#1" type='dist'/>
    <trip id="83" depart="83.00" from="-712111282#1" to="87065271#6" type='dist'/>
    <trip id="84" depart="84.00" from="25150167#1" to="27221125" type='dist'/>
    <trip id="85" depart="85.00" from="272514870" to="651927144" type='dist'/>
    <trip id="86" depart="86.00" from="210459412" to="-30170632#1" type='dist'/>
    <trip id="87" depart="87.00" from="-8080628" to="23347176#3" type='dist'/>
    <trip id="88" depart="88.00" from="23936130#0" to="67066835#0" type='dist'/>
    <trip id="89" depart="89.00" from="-25787901#2" to="33557629" type='dist'/>
    <trip id="90" depart="90.00" from="4341799" to="-651927144" type='dist'/>
    <trip id="91" depart="91.00" from="25147971#1" to="4353280" type='dist'/>
    <trip id="92" depart="92.00" from="4481599" to="-23347535#2" type='dist'/>
    <trip id="93" depart="93.00" from="272407128#1" to="-22795679#3" type='dist'/>
    <trip id="94" depart="94.00" from="-4445745#0" to="-23040461" type='dist'/>
    <trip id="95" depart="95.00" from="-558507499" to="211406566" type='dist'/>
    <trip id="96" depart="96.00" from="8433773#1" to="4357954#0" type='dist'/>
    <trip id="97" depart="97.00" from="19629238#2" to="19752819#4" type='dist'/>
    <trip id="98" depart="98.00" from="8061272#1" to="-370181740#0" type='dist'/>
    <trip id="99" depart="99.00" from="-211406576" to="-144105510#2" type='dist'/>
    <trip id="100" depart="100.00" from="27306622#0" to="128813909#1" type='dist'/>
    <trip id="101" depart="101.00" from="4542365" to="319148397#1" type='dist'/>
    <trip id="102" depart="102.00" from="-4337475#1" to="4464296#3" type='dist'/>
    <trip id="103" depart="103.00" from="-7839667#2" to="705317057#2" type='dist'/>
    <trip id="104" depart="104.00" from="27837384" to="-426148391#1" type='dist'/>
    <trip id="105" depart="105.00" from="-25787901#4" to="4353908#2" type='dist'/>
    <trip id="106" depart="106.00" from="71152367" to="30628451#2" type='dist'/>
    <trip id="107" depart="107.00" from="35429093" to="30628890#1" type='dist'/>
    <trip id="108" depart="108.00" from="150669002" to="23938131#0" type='dist'/>
    <trip id="109" depart="109.00" from="210281884#4" to="-558507476#2" type='dist'/>
    <trip id="110" depart="110.00" from="4481159#0" to="-28434343#3" type='dist'/>
    <trip id="111" depart="111.00" from="4437533#4" to="399039948" type='dist'/>
    <trip id="112" depart="112.00" from="211334443#1" to="255477762" type='dist'/>
    <trip id="113" depart="113.00" from="-8061289#0" to="-23221320#1" type='dist'/>
    <trip id="114" depart="114.00" from="5183231#2" to="27220660#1" type='dist'/>
    <trip id="115" depart="115.00" from="-4314045#1" to="28390280#1" type='dist'/>
    <trip id="116" depart="116.00" from="19782259" to="147447605#0" type='dist'/>
    <trip id="117" depart="117.00" from="424285522" to="-23347133" type='dist'/>
    <trip id="118" depart="118.00" from="-4498509#1" to="31891657#0" type='dist'/>
    <trip id="119" depart="119.00" from="509105277#2" to="147444238#3" type='dist'/>
</routes>
