<?xml version="1.0" encoding="UTF-8"?>
<!-- generated on 2019-07-31 12:12:21.957000 by $Id$
  options: -n mapNetconvert.net.xml <doubleminus>additional-file C:\Users\Neblis\Desktop\C4R\vehicles.add.xml -e 60 -p 3 -o models/random/trips.trips.xml -r models/random/routes.rou.xml <doubleminus>trip-attributes type='dist'
-->
<routes xmlns:xsi="http://www.w3.org/2001/XMLSchema-instance" xsi:noNamespaceSchemaLocation="http://sumo.dlr.de/xsd/routes_file.xsd">
    <trip id="0" depart="0.00" from="4520001" to="-5069780#6" type='dist'/>
    <trip id="1" depart="3.00" from="8657992#3" to="559388067#2" type='dist'/>
    <trip id="2" depart="6.00" from="49906253#1" to="156298610#1" type='dist'/>
    <trip id="3" depart="9.00" from="-4607651#2" to="10495151#1" type='dist'/>
    <trip id="4" depart="12.00" from="-4644903#7" to="155784630#0" type='dist'/>
    <trip id="5" depart="15.00" from="83115621#0" to="112168799#0" type='dist'/>
    <trip id="6" depart="18.00" from="96253613#6" to="4519988#0" type='dist'/>
    <trip id="7" depart="21.00" from="156298614#0" to="5070618" type='dist'/>
    <trip id="8" depart="24.00" from="5076402#0" to="-72576088#2" type='dist'/>
    <trip id="9" depart="27.00" from="238663242#5" to="26221807#2" type='dist'/>
    <trip id="10" depart="30.00" from="388737756#2" to="-142707726#1" type='dist'/>
    <trip id="11" depart="33.00" from="29346809" to="49576592#2" type='dist'/>
    <trip id="12" depart="36.00" from="-388737757#0" to="45865777#1" type='dist'/>
    <trip id="13" depart="39.00" from="266449024#0" to="-172681457" type='dist'/>
    <trip id="14" depart="42.00" from="28021564" to="41186494#1" type='dist'/>
    <trip id="15" depart="45.00" from="327372621#0" to="-5109236#1" type='dist'/>
    <trip id="16" depart="48.00" from="-5104997#0" to="5382607#1" type='dist'/>
    <trip id="17" depart="51.00" from="5069747#4" to="-10495156#1" type='dist'/>
    <trip id="18" depart="54.00" from="4516320#6" to="472503788#1" type='dist'/>
    <trip id="19" depart="57.00" from="561747099" to="-8511656#1" type='dist'/>
</routes>
