<?xml version="1.0" encoding="UTF-8"?>
<!-- generated on 2019-07-26 12:09:12.123000 by $Id$
  options: -n mapNetconvert.net.xml <doubleminus>additional-file C:\Users\Neblis\Desktop\C4R\vehicles.add.xml -e 100 -p 1 -o ./models/random/trips.trips.xml -r ./models/random/routes.rou.xml <doubleminus>trip-attributes type='dist'
-->
<routes xmlns:xsi="http://www.w3.org/2001/XMLSchema-instance" xsi:noNamespaceSchemaLocation="http://sumo.dlr.de/xsd/routes_file.xsd">
    <trip id="0" depart="0.00" from="47751705#0" to="47457262#1" type='dist'/>
    <trip id="1" depart="1.00" from="-47457262#1" to="47457262#0" type='dist'/>
    <trip id="2" depart="2.00" from="47751768#1" to="228371106#4" type='dist'/>
    <trip id="3" depart="3.00" from="-47457275" to="47457265#1" type='dist'/>
    <trip id="4" depart="4.00" from="454067557#2" to="454067557#2" type='dist'/>
    <trip id="5" depart="5.00" from="47457295#1" to="668090809#2" type='dist'/>
    <trip id="6" depart="6.00" from="228371106#2" to="23070232#1" type='dist'/>
    <trip id="7" depart="7.00" from="-454067558#3" to="228371134#0" type='dist'/>
    <trip id="8" depart="8.00" from="-23070232#2" to="-228371106#5" type='dist'/>
    <trip id="9" depart="9.00" from="47457259#6" to="-47457265#2" type='dist'/>
    <trip id="10" depart="10.00" from="228371106#4" to="228371124#3" type='dist'/>
    <trip id="11" depart="11.00" from="454067558#2" to="47457288" type='dist'/>
    <trip id="12" depart="12.00" from="447469848#1" to="228371106#3" type='dist'/>
    <trip id="13" depart="13.00" from="38283578#0" to="447469848#0" type='dist'/>
    <trip id="14" depart="14.00" from="-454067557#2" to="-228371185" type='dist'/>
    <trip id="15" depart="15.00" from="-668090809#3" to="47457295#3" type='dist'/>
    <trip id="16" depart="16.00" from="230769158#0" to="454067558#0" type='dist'/>
    <trip id="17" depart="17.00" from="454067557#2" to="47457259#8" type='dist'/>
    <trip id="18" depart="18.00" from="454067558#2" to="-47457278#1" type='dist'/>
    <trip id="19" depart="19.00" from="-230769158#3" to="228371136" type='dist'/>
    <trip id="20" depart="20.00" from="447693571#2" to="228371128#2" type='dist'/>
    <trip id="21" depart="21.00" from="228371134#0" to="47457259#0" type='dist'/>
    <trip id="22" depart="22.00" from="454067558#4" to="47457294#0" type='dist'/>
    <trip id="23" depart="23.00" from="47457260#0" to="-454067558#4" type='dist'/>
    <trip id="24" depart="24.00" from="47751741#2" to="228371128#1" type='dist'/>
    <trip id="25" depart="25.00" from="230769158#2" to="-47457278#5" type='dist'/>
    <trip id="26" depart="26.00" from="-228371106#2" to="47457259#2" type='dist'/>
    <trip id="27" depart="27.00" from="668090809#3" to="47457285#1" type='dist'/>
    <trip id="28" depart="28.00" from="-447469848#7" to="-38283578#2" type='dist'/>
    <trip id="29" depart="29.00" from="47457278#4" to="230769158#2" type='dist'/>
    <trip id="30" depart="30.00" from="-228371106#4" to="47457295#2" type='dist'/>
    <trip id="31" depart="31.00" from="47751705#0" to="-454067558#2" type='dist'/>
    <trip id="32" depart="32.00" from="47751765" to="47457260#0" type='dist'/>
    <trip id="33" depart="33.00" from="47751789#0" to="-47457265#0" type='dist'/>
    <trip id="34" depart="34.00" from="47457265#1" to="454067557#0" type='dist'/>
    <trip id="35" depart="35.00" from="228371128#3" to="-447469848#1" type='dist'/>
    <trip id="36" depart="36.00" from="47457258#0" to="-333598111#2" type='dist'/>
    <trip id="37" depart="37.00" from="454067558#2" to="-230769158#0" type='dist'/>
    <trip id="38" depart="38.00" from="47457295#4" to="-228371106#0" type='dist'/>
    <trip id="39" depart="39.00" from="-23070232#2" to="47457259#8" type='dist'/>
    <trip id="40" depart="40.00" from="-447469848#5" to="47457286" type='dist'/>
    <trip id="41" depart="41.00" from="47457276" to="-228371126#1" type='dist'/>
    <trip id="42" depart="42.00" from="38283578#1" to="47457259#9" type='dist'/>
    <trip id="43" depart="43.00" from="23070232#2" to="-454067558#0" type='dist'/>
    <trip id="44" depart="44.00" from="-228371106#1" to="-447469848#3" type='dist'/>
    <trip id="45" depart="45.00" from="-447469848#5" to="38283578#2" type='dist'/>
    <trip id="46" depart="46.00" from="47457259#7" to="-47457265#2" type='dist'/>
    <trip id="47" depart="47.00" from="47457262#0" to="-230769158#2" type='dist'/>
    <trip id="48" depart="48.00" from="-447693571#2" to="228371128#0" type='dist'/>
    <trip id="49" depart="49.00" from="47457294#0" to="-47457262#1" type='dist'/>
    <trip id="50" depart="50.00" from="228371123#3" to="-228371106#4" type='dist'/>
    <trip id="51" depart="51.00" from="-47457262#1" to="47457285#1" type='dist'/>
    <trip id="52" depart="52.00" from="23070232#2" to="-38283578#2" type='dist'/>
    <trip id="53" depart="53.00" from="454067557#2" to="-668090809#3" type='dist'/>
    <trip id="54" depart="54.00" from="228371136" to="228371106#3" type='dist'/>
    <trip id="55" depart="55.00" from="454067558#3" to="47457277" type='dist'/>
    <trip id="56" depart="56.00" from="47457294#0" to="47457265#0" type='dist'/>
    <trip id="57" depart="57.00" from="-47751768#0" to="47457259#7" type='dist'/>
    <trip id="58" depart="58.00" from="47751768#1" to="-228371106#0" type='dist'/>
    <trip id="59" depart="59.00" from="-447693571#2" to="47457390" type='dist'/>
    <trip id="60" depart="60.00" from="-447469848#1" to="47457259#7" type='dist'/>
    <trip id="61" depart="61.00" from="47457266#1" to="228371125#1" type='dist'/>
    <trip id="62" depart="62.00" from="447469848#3" to="47457271#2" type='dist'/>
    <trip id="63" depart="63.00" from="47751705#1" to="47751741#1" type='dist'/>
    <trip id="64" depart="64.00" from="228371123#1" to="47457387#2" type='dist'/>
    <trip id="65" depart="65.00" from="-228371106#5" to="228371136" type='dist'/>
    <trip id="66" depart="66.00" from="447469848#5" to="47751741#2" type='dist'/>
    <trip id="67" depart="67.00" from="47457259#6" to="454067558#3" type='dist'/>
    <trip id="68" depart="68.00" from="454067558#1" to="23070232#3" type='dist'/>
    <trip id="69" depart="69.00" from="47457277" to="47457261#0" type='dist'/>
    <trip id="70" depart="70.00" from="228371187" to="47751705#0" type='dist'/>
    <trip id="71" depart="71.00" from="-228371185" to="-47457278#0" type='dist'/>
    <trip id="72" depart="72.00" from="-47751768#1" to="47457261#1" type='dist'/>
    <trip id="73" depart="73.00" from="-228371106#4" to="47457278#4" type='dist'/>
    <trip id="74" depart="74.00" from="47457278#0" to="-38283578#1" type='dist'/>
    <trip id="75" depart="75.00" from="-454067557#2" to="228371130" type='dist'/>
    <trip id="76" depart="76.00" from="-668090809#2" to="-447693571#2" type='dist'/>
    <trip id="77" depart="77.00" from="47751789#0" to="-47457278#3" type='dist'/>
    <trip id="78" depart="78.00" from="-447693571#2" to="228371106#3" type='dist'/>
    <trip id="79" depart="79.00" from="447693568" to="-47751765" type='dist'/>
    <trip id="80" depart="80.00" from="-23070232#1" to="47457272" type='dist'/>
    <trip id="81" depart="81.00" from="-230769158#0" to="-454067558#4" type='dist'/>
    <trip id="82" depart="82.00" from="230769158#0" to="-47457267" type='dist'/>
    <trip id="83" depart="83.00" from="-47751768#0" to="47751789#0" type='dist'/>
    <trip id="84" depart="84.00" from="228371128#3" to="228371125#0" type='dist'/>
    <trip id="85" depart="85.00" from="228371128#3" to="47457387#2" type='dist'/>
    <trip id="86" depart="86.00" from="47457260#0" to="47457295#0" type='dist'/>
    <trip id="87" depart="87.00" from="47457265#2" to="228371128#2" type='dist'/>
    <trip id="88" depart="88.00" from="-47457262#0" to="-228371126#0" type='dist'/>
    <trip id="89" depart="89.00" from="47457257" to="47457259#7" type='dist'/>
    <trip id="90" depart="90.00" from="47457271#0" to="228371106#5" type='dist'/>
    <trip id="91" depart="91.00" from="47457271#0" to="47457259#5" type='dist'/>
    <trip id="92" depart="92.00" from="-47457286" to="38283578#2" type='dist'/>
    <trip id="93" depart="93.00" from="23070232#2" to="228371185" type='dist'/>
    <trip id="94" depart="94.00" from="-668090809#3" to="-38283578#1" type='dist'/>
    <trip id="95" depart="95.00" from="447693571#2" to="-228371126#0" type='dist'/>
    <trip id="96" depart="96.00" from="47457259#5" to="-228371106#0" type='dist'/>
    <trip id="97" depart="97.00" from="-47457278#5" to="-228371185" type='dist'/>
    <trip id="98" depart="98.00" from="228371128#1" to="-454067557#0" type='dist'/>
    <trip id="99" depart="99.00" from="47457267" to="228371134#0" type='dist'/>
</routes>
