<?xml version="1.0" encoding="UTF-8"?>
<!-- generated on 2019-07-29 12:47:44.952000 by $Id$
  options: -n mapNetconvert.net.xml <doubleminus>additional-file C:\Users\Neblis\Desktop\C4R\vehicles.add.xml -e 60 -p 3 -o models/random/trips.trips.xml -r models/random/routes.rou.xml <doubleminus>trip-attributes type='dist'
-->
<routes xmlns:xsi="http://www.w3.org/2001/XMLSchema-instance" xsi:noNamespaceSchemaLocation="http://sumo.dlr.de/xsd/routes_file.xsd">
    <trip id="0" depart="0.00" from="333598111#0" to="47751741#1" type='dist'/>
    <trip id="1" depart="3.00" from="447469848#1" to="47457288" type='dist'/>
    <trip id="2" depart="6.00" from="47457295#0" to="-47457278#4" type='dist'/>
    <trip id="3" depart="9.00" from="-228371106#5" to="-228371126#1" type='dist'/>
    <trip id="4" depart="12.00" from="47457271#1" to="-47457281" type='dist'/>
    <trip id="5" depart="15.00" from="47751705#0" to="228371102#1" type='dist'/>
    <trip id="6" depart="18.00" from="-228371106#3" to="228371125#1" type='dist'/>
    <trip id="7" depart="21.00" from="-228371126#1" to="228371106#3" type='dist'/>
    <trip id="8" depart="24.00" from="-447469848#1" to="228371124#0" type='dist'/>
    <trip id="9" depart="27.00" from="47457272" to="47751835" type='dist'/>
    <trip id="10" depart="30.00" from="-228371126#1" to="-668090809#3" type='dist'/>
    <trip id="11" depart="33.00" from="47457294#2" to="47457259#9" type='dist'/>
    <trip id="12" depart="36.00" from="447469848#1" to="23070232#1" type='dist'/>
    <trip id="13" depart="39.00" from="47751741#1" to="228371106#5" type='dist'/>
    <trip id="14" depart="42.00" from="-668090809#3" to="-454067557#1" type='dist'/>
    <trip id="15" depart="45.00" from="47457276" to="-228371106#0" type='dist'/>
    <trip id="16" depart="48.00" from="228371124#0" to="-47457278#5" type='dist'/>
    <trip id="17" depart="51.00" from="47457259#5" to="-454067558#2" type='dist'/>
    <trip id="18" depart="54.00" from="454067557#1" to="228371102#1" type='dist'/>
    <trip id="19" depart="57.00" from="47751765" to="230769158#0" type='dist'/>
</routes>
