<additional>
<vTypeDistribution id="dist1">
<Vtype id="Sport" accel="3.00" decel="5.00" tau="7.0" length="1" maxSpeed="100" carFollowModel="Krauss" sigma="0.5" minGap="1"  />
<Vtype id="Car" accel="3.00" decel="5.00" tau="7.0" length="1" maxSpeed="100" carFollowModel="Krauss" sigma="0.5" minGap="1"  />
<Vtype id="Truck" accel="3.00" decel="5.00" tau="7.0" length="1" maxSpeed="100" carFollowModel="Krauss" sigma="0.5" minGap="1"  />
</vTypeDistribution>
</additional>
